
     RDKit          3D

  0  0  0  0  0  0  0  0  0  0999 V3000
M  V30 BEGIN CTAB
M  V30 COUNTS 204 222 0 0 0
M  V30 BEGIN ATOM
M  V30 1 C -2.2926 1.4174 14.1360 0
M  V30 2 C -0.9657 0.7971 14.4106 0
M  V30 3 C -0.9884 -0.4332 15.0350 0
M  V30 4 C -2.2543 -1.1126 15.4276 0
M  V30 5 N -2.9279 -1.6904 14.2835 0
M  V30 6 C 0.2119 -1.0943 15.3274 0
M  V30 7 C 0.1567 -2.4222 16.0126 0
M  V30 8 C 1.3720 -0.4604 14.9645 0
M  V30 9 C 2.6704 -1.1292 15.2385 0
M  V30 10 N 2.9963 -2.1632 14.2835 0
M  V30 11 C 1.4076 0.7822 14.3340 0
M  V30 12 C 2.7052 1.3880 13.9903 0
M  V30 13 C 0.2190 1.4241 14.0512 0
M  V30 14 C 0.1433 2.7455 13.4079 0
M  V30 15 N -0.0684 3.8536 14.2835 0
M  V30 16 H -2.4854 2.1507 14.9346 0
M  V30 17 H -2.3401 1.8205 13.1089 0
M  V30 18 H -3.1160 0.6644 14.2198 0
M  V30 19 H -2.0583 -1.9409 16.1203 0
M  V30 20 H -2.8936 -0.3694 15.9168 0
M  V30 21 H 1.1319 -2.8298 16.2259 0
M  V30 22 H -0.5258 -3.1203 15.4855 0
M  V30 23 H -0.3122 -2.2699 17.0369 0
M  V30 24 H 3.4832 -0.3662 15.1893 0
M  V30 25 H 2.6681 -1.6188 16.2414 0
M  V30 26 H 3.3373 0.6117 13.4588 0
M  V30 27 H 3.2950 1.6026 14.9337 0
M  V30 28 H 2.6923 2.2328 13.3157 0
M  V30 29 H -0.7285 2.7938 12.6744 0
M  V30 30 H 1.0161 2.8731 12.7434 0
M  V30 31 C -10.7237 -8.9323 -3.5083 0
M  V30 32 C -11.3060 -7.8822 -4.3908 0
M  V30 33 C -12.5261 -7.3694 -4.0004 0
M  V30 34 C -13.2389 -7.8324 -2.7775 0
M  V30 35 N -12.6384 -7.2968 -1.5737 0
M  V30 36 C -13.1466 -6.3735 -4.7663 0
M  V30 37 C -14.4727 -5.8432 -4.3236 0
M  V30 38 C -12.4843 -5.9553 -5.8913 0
M  V30 39 C -13.0941 -4.8890 -6.7276 0
M  V30 40 N -12.9113 -3.5612 -6.1879 0
M  V30 41 C -11.2521 -6.4659 -6.2961 0
M  V30 42 C -10.6217 -5.9586 -7.5265 0
M  V30 43 C -10.6506 -7.4468 -5.5338 0
M  V30 44 C -9.3624 -8.0682 -5.8805 0
M  V30 45 N -9.4375 -9.3419 -6.5219 0
M  V30 46 H -10.9523 -9.9090 -3.9628 0
M  V30 47 H -9.6523 -8.7443 -3.3172 0
M  V30 48 H -11.2268 -8.9452 -2.5089 0
M  V30 49 H -14.2827 -7.4936 -2.7779 0
M  V30 50 H -13.2093 -8.9276 -2.7689 0
M  V30 51 H -14.8822 -5.1089 -4.9988 0
M  V30 52 H -14.4454 -5.5233 -3.2616 0
M  V30 53 H -15.2212 -6.6982 -4.3540 0
M  V30 54 H -12.6134 -4.9051 -7.7345 0
M  V30 55 H -14.1956 -5.0366 -6.8292 0
M  V30 56 H -10.6359 -4.8256 -7.4995 0
M  V30 57 H -11.2680 -6.2059 -8.4237 0
M  V30 58 H -9.5831 -6.2112 -7.6894 0
M  V30 59 H -8.7356 -8.2579 -4.9470 0
M  V30 60 H -8.7462 -7.3361 -6.4318 0
M  V30 61 C 13.0975 -4.8208 -3.5083 0
M  V30 62 C 12.4792 -5.8502 -4.3908 0
M  V30 63 C 12.6451 -7.1633 -4.0004 0
M  V30 64 C 13.4025 -7.5490 -2.7775 0
M  V30 65 N 12.6384 -7.2968 -1.5737 0
M  V30 66 C 12.0929 -8.1985 -4.7663 0
M  V30 67 C 12.2967 -9.6122 -4.3236 0
M  V30 68 C 11.3996 -7.8341 -5.8913 0
M  V30 69 C 10.7810 -8.8953 -6.7276 0
M  V30 70 N 9.5398 -9.4009 -6.1879 0
M  V30 71 C 11.2257 -6.5116 -6.2961 0
M  V30 72 C 10.4712 -6.2193 -7.5265 0
M  V30 73 C 11.7744 -5.5003 -5.5338 0
M  V30 74 C 11.6685 -4.0740 -5.8805 0
M  V30 75 N 12.8091 -3.5022 -6.5219 0
M  V30 76 H 14.0576 -4.5305 -3.9628 0
M  V30 77 H 12.3990 -3.9870 -3.3172 0
M  V30 78 H 13.3602 -5.2501 -2.5089 0
M  V30 79 H 13.6310 -8.6224 -2.7779 0
M  V30 80 H 14.3362 -6.9758 -2.7689 0
M  V30 81 H 11.8655 -10.3339 -4.9988 0
M  V30 82 H 12.0060 -9.7484 -3.2616 0
M  V30 83 H 13.4114 -9.8328 -4.3540 0
M  V30 84 H 10.5546 -8.4710 -7.7345 0
M  V30 85 H 11.4596 -9.7755 -6.8292 0
M  V30 86 H 9.4970 -6.7981 -7.4995 0
M  V30 87 H 11.0085 -6.6555 -8.4237 0
M  V30 88 H 10.1706 -5.1936 -7.6894 0
M  V30 89 H 11.5193 -3.4363 -4.9470 0
M  V30 90 H 10.7263 -3.9064 -6.4318 0
M  V30 91 C -2.3738 13.7532 -3.5083 0
M  V30 92 C -1.1731 13.7324 -4.3908 0
M  V30 93 C -0.1190 14.5326 -4.0004 0
M  V30 94 C -0.1636 15.3814 -2.7775 0
M  V30 95 N 0.0000 14.5935 -1.5737 0
M  V30 96 C 1.0537 14.5720 -4.7663 0
M  V30 97 C 2.1760 15.4553 -4.3236 0
M  V30 98 C 1.0847 13.7893 -5.8913 0
M  V30 99 C 2.3131 13.7843 -6.7276 0
M  V30 100 N 3.3715 12.9621 -6.1879 0
M  V30 101 C 0.0264 12.9775 -6.2961 0
M  V30 102 C 0.1505 12.1780 -7.5265 0
M  V30 103 C -1.1238 12.9470 -5.5338 0
M  V30 104 C -2.3061 12.1422 -5.8805 0
M  V30 105 N -3.3715 12.8441 -6.5219 0
M  V30 106 H -3.1052 14.4395 -3.9628 0
M  V30 107 H -2.7466 12.7313 -3.3172 0
M  V30 108 H -2.1333 14.1953 -2.5089 0
M  V30 109 H 0.6517 16.1160 -2.7779 0
M  V30 110 H -1.1269 15.9034 -2.7689 0
M  V30 111 H 3.0166 15.4428 -4.9988 0
M  V30 112 H 2.4394 15.2717 -3.2616 0
M  V30 113 H 1.8097 16.5310 -4.3540 0
M  V30 114 H 2.0588 13.3761 -7.7345 0
M  V30 115 H 2.7360 14.8121 -6.8292 0
M  V30 116 H 1.1389 11.6237 -7.4995 0
M  V30 117 H 0.2596 12.8613 -8.4237 0
M  V30 118 H -0.5875 11.4048 -7.6894 0
M  V30 119 H -2.7837 11.6942 -4.9470 0
M  V30 120 H -1.9801 11.2425 -6.4318 0
M  V30 121 C -5.8485 -3.3766 9.5142 0
M  V30 122 C -6.5953 -3.8075 8.3591 0
M  V30 123 C -6.3628 -3.6812 7.0367 0
M  V30 124 C -7.2754 -4.2050 6.2054 0
M  V30 125 S -7.4197 -4.2959 4.3218 0
M  V30 126 C -8.9820 -5.1860 4.3541 0
M  V30 127 C -9.7178 -5.6106 3.1956 0
M  V30 128 C -9.2125 -5.3112 5.6754 0
M  V30 129 C -8.2886 -4.7810 6.4982 0
M  V30 130 S -8.1431 -4.6893 8.3859 0
M  V30 131 H -4.9337 -2.8560 9.3809 0
M  V30 132 H -5.4424 -3.1583 6.6905 0
M  V30 133 H -10.6373 -6.1340 3.3078 0
M  V30 134 H -10.1343 -5.8348 6.0228 0
M  V30 135 C 5.8827 -3.6130 9.5142 0
M  V30 136 C 6.6290 -4.0449 8.3591 0
M  V30 137 C 6.4117 -3.8925 7.0368 0
M  V30 138 C 7.3184 -4.4264 6.2055 0
M  V30 139 S 7.4775 -4.4921 4.3220 0
M  V30 140 C 9.0167 -5.4217 4.3541 0
M  V30 141 C 9.7520 -5.8470 3.1956 0
M  V30 142 C 9.2318 -5.5728 5.6752 0
M  V30 143 C 8.3142 -5.0321 6.4981 0
M  V30 144 S 8.1538 -4.9657 8.3857 0
M  V30 145 H 4.9825 -3.0675 9.3810 0
M  V30 146 H 5.5079 -3.3414 6.6908 0
M  V30 147 H 10.6570 -6.3950 3.3077 0
M  V30 148 H 10.1371 -6.1248 6.0225 0
M  V30 149 C -0.0342 6.9896 9.5142 0
M  V30 150 C -0.0341 7.8519 8.3591 0
M  V30 151 C -0.0379 7.5873 7.0367 0
M  V30 152 C -0.0364 8.6396 6.2054 0
M  V30 153 S -0.0402 8.8100 4.3217 0
M  V30 154 C -0.0343 10.6081 4.3541 0
M  V30 155 C -0.0342 11.4575 3.1956 0
M  V30 156 C -0.0305 10.8702 5.6754 0
M  V30 157 C -0.0320 9.8050 6.4982 0
M  V30 158 S -0.0283 9.6332 8.3859 0
M  V30 159 H -0.0379 5.9371 9.3809 0
M  V30 160 H -0.0421 6.5288 6.6904 0
M  V30 161 H -0.0306 12.5155 3.3078 0
M  V30 162 H -0.0263 11.9304 6.0228 0
M  V30 163 C -3.8182 -9.3714 -6.3549 0
M  V30 164 C -2.3772 -9.4020 -6.3759 0
M  V30 165 C -1.4503 -8.5951 -5.8206 0
M  V30 166 C -0.1640 -8.9075 -6.0356 0
M  V30 167 S 1.4724 -8.1263 -5.4978 0
M  V30 168 C 2.4841 -9.3510 -6.3409 0
M  V30 169 C 3.9205 -9.3714 -6.3549 0
M  V30 170 C 1.5566 -10.1557 -6.8948 0
M  V30 171 C 0.2699 -9.8306 -6.6710 0
M  V30 172 S -1.3707 -10.6128 -7.2094 0
M  V30 173 H -4.3170 -8.6001 -5.8240 0
M  V30 174 H -1.7787 -7.7186 -5.2172 0
M  V30 175 H 4.4397 -10.1363 -6.8814 0
M  V30 176 H 1.8851 -11.0340 -7.4993 0
M  V30 177 C -10.0761 1.2905 -6.3549 0
M  V30 178 C -9.3823 2.5538 -6.3755 0
M  V30 179 C -8.2135 2.9494 -5.8315 0
M  V30 180 C -7.8434 4.2210 -6.0421 0
M  V30 181 S -6.3423 5.2438 -5.5153 0
M  V30 182 C -6.9071 6.7382 -6.3412 0
M  V30 183 C -6.2068 7.9924 -6.3549 0
M  V30 184 C -8.0744 6.3411 -6.8838 0
M  V30 185 C -8.4335 5.0626 -6.6646 0
M  V30 186 S -9.9376 4.0367 -7.1920 0
M  V30 187 H -9.6512 0.4692 -5.8348 0
M  V30 188 H -7.6113 2.2225 -5.2403 0
M  V30 189 H -6.6159 8.8281 -6.8707 0
M  V30 190 H -8.6780 7.0688 -7.4760 0
M  V30 191 C 10.0250 1.3790 -6.3549 0
M  V30 192 C 9.3310 2.6422 -6.3759 0
M  V30 193 C 8.1687 3.0416 -5.8206 0
M  V30 194 C 7.7961 4.3118 -6.0356 0
M  V30 195 S 6.3014 5.3383 -5.4978 0
M  V30 196 C 6.8562 6.8268 -6.3409 0
M  V30 197 C 6.1556 8.0809 -6.3549 0
M  V30 198 C 8.0168 6.4259 -6.8948 0
M  V30 199 C 8.3786 5.1490 -6.6710 0
M  V30 200 S 9.8763 4.1193 -7.2094 0
M  V30 201 H 9.6064 0.5614 -5.8240 0
M  V30 202 H 7.5738 2.3189 -5.2172 0
M  V30 203 H 6.5585 8.9130 -6.8814 0
M  V30 204 H 8.6132 7.1495 -7.4993 0
M  V30 END ATOM
M  V30 BEGIN BOND
M  V30 1 1 1 2
M  V30 2 2 2 3
M  V30 3 1 3 4
M  V30 4 1 4 5
M  V30 5 1 3 6
M  V30 6 1 6 7
M  V30 7 2 6 8
M  V30 8 1 8 9
M  V30 9 1 9 10
M  V30 10 1 8 11
M  V30 11 1 11 12
M  V30 12 2 11 13
M  V30 13 1 13 14
M  V30 14 1 14 15
M  V30 15 1 13 2
M  V30 16 1 1 16
M  V30 17 1 1 17
M  V30 18 1 1 18
M  V30 19 1 4 19
M  V30 20 1 4 20
M  V30 21 1 7 21
M  V30 22 1 7 22
M  V30 23 1 7 23
M  V30 24 1 9 24
M  V30 25 1 9 25
M  V30 26 1 12 26
M  V30 27 1 12 27
M  V30 28 1 12 28
M  V30 29 1 14 29
M  V30 30 1 14 30
M  V30 31 1 31 32
M  V30 32 2 32 33
M  V30 33 1 33 34
M  V30 34 1 34 35
M  V30 35 1 33 36
M  V30 36 1 36 37
M  V30 37 2 36 38
M  V30 38 1 38 39
M  V30 39 1 39 40
M  V30 40 1 38 41
M  V30 41 1 41 42
M  V30 42 2 41 43
M  V30 43 1 43 44
M  V30 44 1 44 45
M  V30 45 1 43 32
M  V30 46 1 31 46
M  V30 47 1 31 47
M  V30 48 1 31 48
M  V30 49 1 34 49
M  V30 50 1 34 50
M  V30 51 1 37 51
M  V30 52 1 37 52
M  V30 53 1 37 53
M  V30 54 1 39 54
M  V30 55 1 39 55
M  V30 56 1 42 56
M  V30 57 1 42 57
M  V30 58 1 42 58
M  V30 59 1 44 59
M  V30 60 1 44 60
M  V30 61 1 61 62
M  V30 62 2 62 63
M  V30 63 1 63 64
M  V30 64 1 64 65
M  V30 65 1 63 66
M  V30 66 1 66 67
M  V30 67 2 66 68
M  V30 68 1 68 69
M  V30 69 1 69 70
M  V30 70 1 68 71
M  V30 71 1 71 72
M  V30 72 2 71 73
M  V30 73 1 73 74
M  V30 74 1 74 75
M  V30 75 1 73 62
M  V30 76 1 61 76
M  V30 77 1 61 77
M  V30 78 1 61 78
M  V30 79 1 64 79
M  V30 80 1 64 80
M  V30 81 1 67 81
M  V30 82 1 67 82
M  V30 83 1 67 83
M  V30 84 1 69 84
M  V30 85 1 69 85
M  V30 86 1 72 86
M  V30 87 1 72 87
M  V30 88 1 72 88
M  V30 89 1 74 89
M  V30 90 1 74 90
M  V30 91 1 91 92
M  V30 92 2 92 93
M  V30 93 1 93 94
M  V30 94 1 94 95
M  V30 95 1 93 96
M  V30 96 1 96 97
M  V30 97 2 96 98
M  V30 98 1 98 99
M  V30 99 1 99 100
M  V30 100 1 98 101
M  V30 101 1 101 102
M  V30 102 2 101 103
M  V30 103 1 103 104
M  V30 104 1 104 105
M  V30 105 1 103 92
M  V30 106 1 91 106
M  V30 107 1 91 107
M  V30 108 1 91 108
M  V30 109 1 94 109
M  V30 110 1 94 110
M  V30 111 1 97 111
M  V30 112 1 97 112
M  V30 113 1 97 113
M  V30 114 1 99 114
M  V30 115 1 99 115
M  V30 116 1 102 116
M  V30 117 1 102 117
M  V30 118 1 102 118
M  V30 119 1 104 119
M  V30 120 1 104 120
M  V30 121 1 121 122
M  V30 122 2 122 123
M  V30 123 1 123 124
M  V30 124 1 124 125
M  V30 125 1 125 126
M  V30 126 1 126 127
M  V30 127 2 126 128
M  V30 128 1 128 129
M  V30 129 1 129 130
M  V30 130 1 130 122
M  V30 131 2 129 124
M  V30 132 1 121 131
M  V30 133 1 123 132
M  V30 134 1 127 133
M  V30 135 1 128 134
M  V30 136 1 135 136
M  V30 137 2 136 137
M  V30 138 1 137 138
M  V30 139 1 138 139
M  V30 140 1 139 140
M  V30 141 1 140 141
M  V30 142 2 140 142
M  V30 143 1 142 143
M  V30 144 1 143 144
M  V30 145 1 144 136
M  V30 146 2 143 138
M  V30 147 1 135 145
M  V30 148 1 137 146
M  V30 149 1 141 147
M  V30 150 1 142 148
M  V30 151 1 149 150
M  V30 152 2 150 151
M  V30 153 1 151 152
M  V30 154 1 152 153
M  V30 155 1 153 154
M  V30 156 1 154 155
M  V30 157 2 154 156
M  V30 158 1 156 157
M  V30 159 1 157 158
M  V30 160 1 158 150
M  V30 161 2 157 152
M  V30 162 1 149 159
M  V30 163 1 151 160
M  V30 164 1 155 161
M  V30 165 1 156 162
M  V30 166 1 163 164
M  V30 167 2 164 165
M  V30 168 1 165 166
M  V30 169 1 166 167
M  V30 170 1 167 168
M  V30 171 1 168 169
M  V30 172 2 168 170
M  V30 173 1 170 171
M  V30 174 1 171 172
M  V30 175 1 172 164
M  V30 176 2 171 166
M  V30 177 1 163 173
M  V30 178 1 165 174
M  V30 179 1 169 175
M  V30 180 1 170 176
M  V30 181 1 177 178
M  V30 182 2 178 179
M  V30 183 1 179 180
M  V30 184 1 180 181
M  V30 185 1 181 182
M  V30 186 1 182 183
M  V30 187 2 182 184
M  V30 188 1 184 185
M  V30 189 1 185 186
M  V30 190 1 186 178
M  V30 191 2 185 180
M  V30 192 1 177 187
M  V30 193 1 179 188
M  V30 194 1 183 189
M  V30 195 1 184 190
M  V30 196 1 191 192
M  V30 197 2 192 193
M  V30 198 1 193 194
M  V30 199 1 194 195
M  V30 200 1 195 196
M  V30 201 1 196 197
M  V30 202 2 196 198
M  V30 203 1 198 199
M  V30 204 1 199 200
M  V30 205 1 200 192
M  V30 206 2 199 194
M  V30 207 1 191 201
M  V30 208 1 193 202
M  V30 209 1 197 203
M  V30 210 1 198 204
M  V30 211 2 5 121
M  V30 212 2 35 127
M  V30 213 2 10 135
M  V30 214 2 65 141
M  V30 215 2 15 149
M  V30 216 2 95 155
M  V30 217 2 45 163
M  V30 218 2 70 169
M  V30 219 2 40 177
M  V30 220 2 105 183
M  V30 221 2 75 191
M  V30 222 2 100 197
M  V30 END BOND
M  V30 END CTAB
M  END

$$$$
