
     RDKit          3D

  0  0  0  0  0  0  0  0  0  0999 V3000
M  V30 BEGIN CTAB
M  V30 COUNTS 408 432 0 0 0
M  V30 BEGIN ATOM
M  V30 1 C -10.5348 13.7770 -10.4200 0
M  V30 2 C -11.3784 12.7441 -11.0850 0
M  V30 3 C -11.2205 12.6183 -12.4500 0
M  V30 4 C -10.2747 13.4628 -13.2313 0
M  V30 5 N -8.9019 13.0426 -13.0426 0
M  V30 6 C -11.9682 11.6685 -13.1586 0
M  V30 7 C -11.7826 11.5611 -14.6385 0
M  V30 8 C -12.8378 10.8975 -12.4315 0
M  V30 9 C -13.6411 9.8646 -13.1357 0
M  V30 10 N -12.8980 8.6605 -13.4286 0
M  V30 11 C -13.0063 11.0156 -11.0529 0
M  V30 12 C -13.9727 10.1470 -10.3598 0
M  V30 13 C -12.2645 11.9548 -10.3656 0
M  V30 14 C -12.3791 12.1765 -8.9152 0
M  V30 15 N -13.1872 13.2840 -8.5159 0
M  V30 16 H -11.1589 14.6738 -10.2823 0
M  V30 17 H -10.0728 13.3822 -9.4979 0
M  V30 18 H -9.6935 14.1002 -11.0832 0
M  V30 19 H -10.4751 13.3859 -14.3076 0
M  V30 20 H -10.4086 14.5007 -12.9070 0
M  V30 21 H -12.4290 10.8282 -15.0944 0
M  V30 22 H -10.7107 11.4544 -14.9041 0
M  V30 23 H -12.1047 12.5462 -15.1055 0
M  V30 24 H -14.4989 9.5728 -12.4844 0
M  V30 25 H -14.0186 10.2453 -14.1146 0
M  V30 26 H -13.7958 9.0762 -10.6868 0
M  V30 27 H -15.0220 10.3622 -10.7293 0
M  V30 28 H -13.9190 10.1114 -9.2806 0
M  V30 29 H -11.3588 12.3891 -8.4523 0
M  V30 30 H -12.6647 11.2277 -8.4274 0
M  V30 31 C -13.7770 -10.5348 -10.4200 0
M  V30 32 C -12.7441 -11.3784 -11.0850 0
M  V30 33 C -12.6183 -11.2205 -12.4500 0
M  V30 34 C -13.4628 -10.2747 -13.2313 0
M  V30 35 N -13.0426 -8.9019 -13.0426 0
M  V30 36 C -11.6685 -11.9682 -13.1586 0
M  V30 37 C -11.5611 -11.7826 -14.6385 0
M  V30 38 C -10.8975 -12.8378 -12.4315 0
M  V30 39 C -9.8646 -13.6411 -13.1357 0
M  V30 40 N -8.6605 -12.8980 -13.4286 0
M  V30 41 C -11.0156 -13.0063 -11.0529 0
M  V30 42 C -10.1470 -13.9727 -10.3598 0
M  V30 43 C -11.9548 -12.2645 -10.3656 0
M  V30 44 C -12.1765 -12.3791 -8.9152 0
M  V30 45 N -13.2840 -13.1872 -8.5159 0
M  V30 46 H -14.6738 -11.1589 -10.2823 0
M  V30 47 H -13.3822 -10.0728 -9.4979 0
M  V30 48 H -14.1002 -9.6935 -11.0832 0
M  V30 49 H -13.3859 -10.4751 -14.3076 0
M  V30 50 H -14.5007 -10.4086 -12.9070 0
M  V30 51 H -10.8282 -12.4290 -15.0944 0
M  V30 52 H -11.4544 -10.7107 -14.9041 0
M  V30 53 H -12.5462 -12.1047 -15.1055 0
M  V30 54 H -9.5728 -14.4989 -12.4844 0
M  V30 55 H -10.2453 -14.0186 -14.1146 0
M  V30 56 H -9.0762 -13.7958 -10.6868 0
M  V30 57 H -10.3622 -15.0220 -10.7293 0
M  V30 58 H -10.1114 -13.9190 -9.2806 0
M  V30 59 H -12.3891 -11.3588 -8.4523 0
M  V30 60 H -11.2277 -12.6647 -8.4274 0
M  V30 61 C 10.5348 10.4200 -13.7770 0
M  V30 62 C 11.3784 11.0850 -12.7441 0
M  V30 63 C 11.2205 12.4500 -12.6183 0
M  V30 64 C 10.2747 13.2313 -13.4628 0
M  V30 65 N 8.9019 13.0426 -13.0426 0
M  V30 66 C 11.9682 13.1586 -11.6685 0
M  V30 67 C 11.7826 14.6385 -11.5611 0
M  V30 68 C 12.8378 12.4315 -10.8975 0
M  V30 69 C 13.6411 13.1357 -9.8646 0
M  V30 70 N 12.8980 13.4286 -8.6605 0
M  V30 71 C 13.0063 11.0529 -11.0156 0
M  V30 72 C 13.9727 10.3598 -10.1470 0
M  V30 73 C 12.2645 10.3656 -11.9548 0
M  V30 74 C 12.3791 8.9152 -12.1765 0
M  V30 75 N 13.1872 8.5159 -13.2840 0
M  V30 76 H 11.1589 10.2823 -14.6738 0
M  V30 77 H 10.0728 9.4979 -13.3822 0
M  V30 78 H 9.6935 11.0832 -14.1002 0
M  V30 79 H 10.4751 14.3076 -13.3859 0
M  V30 80 H 10.4086 12.9070 -14.5007 0
M  V30 81 H 12.4290 15.0944 -10.8282 0
M  V30 82 H 10.7107 14.9041 -11.4544 0
M  V30 83 H 12.1047 15.1055 -12.5462 0
M  V30 84 H 14.4989 12.4844 -9.5728 0
M  V30 85 H 14.0186 14.1146 -10.2453 0
M  V30 86 H 13.7958 10.6868 -9.0762 0
M  V30 87 H 15.0220 10.7293 -10.3622 0
M  V30 88 H 13.9190 9.2806 -10.1114 0
M  V30 89 H 11.3588 8.4523 -12.3891 0
M  V30 90 H 12.6647 8.4274 -11.2277 0
M  V30 91 C 10.5348 -13.7770 -10.4200 0
M  V30 92 C 11.3784 -12.7441 -11.0850 0
M  V30 93 C 11.2205 -12.6183 -12.4500 0
M  V30 94 C 10.2747 -13.4628 -13.2313 0
M  V30 95 N 8.9019 -13.0426 -13.0426 0
M  V30 96 C 11.9682 -11.6685 -13.1586 0
M  V30 97 C 11.7826 -11.5611 -14.6385 0
M  V30 98 C 12.8378 -10.8975 -12.4315 0
M  V30 99 C 13.6411 -9.8646 -13.1357 0
M  V30 100 N 12.8980 -8.6605 -13.4286 0
M  V30 101 C 13.0063 -11.0156 -11.0529 0
M  V30 102 C 13.9727 -10.1470 -10.3598 0
M  V30 103 C 12.2645 -11.9548 -10.3656 0
M  V30 104 C 12.3791 -12.1765 -8.9152 0
M  V30 105 N 13.1872 -13.2840 -8.5159 0
M  V30 106 H 11.1589 -14.6738 -10.2823 0
M  V30 107 H 10.0728 -13.3822 -9.4979 0
M  V30 108 H 9.6935 -14.1002 -11.0832 0
M  V30 109 H 10.4751 -13.3859 -14.3076 0
M  V30 110 H 10.4086 -14.5007 -12.9070 0
M  V30 111 H 12.4290 -10.8282 -15.0944 0
M  V30 112 H 10.7107 -11.4544 -14.9041 0
M  V30 113 H 12.1047 -12.5462 -15.1055 0
M  V30 114 H 14.4989 -9.5728 -12.4844 0
M  V30 115 H 14.0186 -10.2453 -14.1146 0
M  V30 116 H 13.7958 -9.0762 -10.6868 0
M  V30 117 H 15.0220 -10.3622 -10.7293 0
M  V30 118 H 13.9190 -10.1114 -9.2806 0
M  V30 119 H 11.3588 -12.3891 -8.4523 0
M  V30 120 H 12.6647 -11.2277 -8.4274 0
M  V30 121 C -10.5348 10.4200 13.7770 0
M  V30 122 C -11.3784 11.0850 12.7441 0
M  V30 123 C -11.2205 12.4500 12.6183 0
M  V30 124 C -10.2747 13.2313 13.4628 0
M  V30 125 N -8.9019 13.0426 13.0426 0
M  V30 126 C -11.9682 13.1586 11.6685 0
M  V30 127 C -11.7826 14.6385 11.5611 0
M  V30 128 C -12.8378 12.4315 10.8975 0
M  V30 129 C -13.6411 13.1357 9.8646 0
M  V30 130 N -12.8980 13.4286 8.6605 0
M  V30 131 C -13.0063 11.0529 11.0156 0
M  V30 132 C -13.9727 10.3598 10.1470 0
M  V30 133 C -12.2645 10.3656 11.9548 0
M  V30 134 C -12.3791 8.9152 12.1765 0
M  V30 135 N -13.1872 8.5159 13.2840 0
M  V30 136 H -11.1589 10.2823 14.6738 0
M  V30 137 H -10.0728 9.4979 13.3822 0
M  V30 138 H -9.6935 11.0832 14.1002 0
M  V30 139 H -10.4751 14.3076 13.3859 0
M  V30 140 H -10.4086 12.9070 14.5007 0
M  V30 141 H -12.4290 15.0944 10.8282 0
M  V30 142 H -10.7107 14.9041 11.4544 0
M  V30 143 H -12.1047 15.1055 12.5462 0
M  V30 144 H -14.4989 12.4844 9.5728 0
M  V30 145 H -14.0186 14.1146 10.2453 0
M  V30 146 H -13.7958 10.6868 9.0762 0
M  V30 147 H -15.0220 10.7293 10.3622 0
M  V30 148 H -13.9190 9.2806 10.1114 0
M  V30 149 H -11.3588 8.4523 12.3891 0
M  V30 150 H -12.6647 8.4274 11.2277 0
M  V30 151 C -10.4200 -10.5348 13.7770 0
M  V30 152 C -11.0850 -11.3784 12.7441 0
M  V30 153 C -12.4500 -11.2205 12.6183 0
M  V30 154 C -13.2313 -10.2747 13.4628 0
M  V30 155 N -13.0426 -8.9019 13.0426 0
M  V30 156 C -13.1586 -11.9682 11.6685 0
M  V30 157 C -14.6385 -11.7826 11.5611 0
M  V30 158 C -12.4315 -12.8378 10.8975 0
M  V30 159 C -13.1357 -13.6411 9.8646 0
M  V30 160 N -13.4286 -12.8980 8.6605 0
M  V30 161 C -11.0529 -13.0063 11.0156 0
M  V30 162 C -10.3598 -13.9727 10.1470 0
M  V30 163 C -10.3656 -12.2645 11.9548 0
M  V30 164 C -8.9152 -12.3791 12.1765 0
M  V30 165 N -8.5159 -13.1872 13.2840 0
M  V30 166 H -10.2823 -11.1589 14.6738 0
M  V30 167 H -9.4979 -10.0728 13.3822 0
M  V30 168 H -11.0832 -9.6935 14.1002 0
M  V30 169 H -14.3076 -10.4751 13.3859 0
M  V30 170 H -12.9070 -10.4086 14.5007 0
M  V30 171 H -15.0944 -12.4290 10.8282 0
M  V30 172 H -14.9041 -10.7107 11.4544 0
M  V30 173 H -15.1055 -12.1047 12.5462 0
M  V30 174 H -12.4844 -14.4989 9.5728 0
M  V30 175 H -14.1146 -14.0186 10.2453 0
M  V30 176 H -10.6868 -13.7958 9.0762 0
M  V30 177 H -10.7293 -15.0220 10.3622 0
M  V30 178 H -9.2806 -13.9190 10.1114 0
M  V30 179 H -8.4523 -11.3588 12.3891 0
M  V30 180 H -8.4274 -12.6647 11.2277 0
M  V30 181 C 10.5348 13.7770 10.4200 0
M  V30 182 C 11.3784 12.7441 11.0850 0
M  V30 183 C 11.2205 12.6183 12.4500 0
M  V30 184 C 10.2747 13.4628 13.2313 0
M  V30 185 N 8.9019 13.0426 13.0426 0
M  V30 186 C 11.9682 11.6685 13.1586 0
M  V30 187 C 11.7826 11.5611 14.6385 0
M  V30 188 C 12.8378 10.8975 12.4315 0
M  V30 189 C 13.6411 9.8646 13.1357 0
M  V30 190 N 12.8980 8.6605 13.4286 0
M  V30 191 C 13.0063 11.0156 11.0529 0
M  V30 192 C 13.9727 10.1470 10.3598 0
M  V30 193 C 12.2645 11.9548 10.3656 0
M  V30 194 C 12.3791 12.1765 8.9152 0
M  V30 195 N 13.1872 13.2840 8.5159 0
M  V30 196 H 11.1589 14.6738 10.2823 0
M  V30 197 H 10.0728 13.3822 9.4979 0
M  V30 198 H 9.6935 14.1002 11.0832 0
M  V30 199 H 10.4751 13.3859 14.3076 0
M  V30 200 H 10.4086 14.5007 12.9070 0
M  V30 201 H 12.4290 10.8282 15.0944 0
M  V30 202 H 10.7107 11.4544 14.9041 0
M  V30 203 H 12.1047 12.5462 15.1055 0
M  V30 204 H 14.4989 9.5728 12.4844 0
M  V30 205 H 14.0186 10.2453 14.1146 0
M  V30 206 H 13.7958 9.0762 10.6868 0
M  V30 207 H 15.0220 10.3622 10.7293 0
M  V30 208 H 13.9190 10.1114 9.2806 0
M  V30 209 H 11.3588 12.3891 8.4523 0
M  V30 210 H 12.6647 11.2277 8.4274 0
M  V30 211 C 10.5348 -10.4200 13.7770 0
M  V30 212 C 11.3784 -11.0850 12.7441 0
M  V30 213 C 11.2205 -12.4500 12.6183 0
M  V30 214 C 10.2747 -13.2313 13.4628 0
M  V30 215 N 8.9019 -13.0426 13.0426 0
M  V30 216 C 11.9682 -13.1586 11.6685 0
M  V30 217 C 11.7826 -14.6385 11.5611 0
M  V30 218 C 12.8378 -12.4315 10.8975 0
M  V30 219 C 13.6411 -13.1357 9.8646 0
M  V30 220 N 12.8980 -13.4286 8.6605 0
M  V30 221 C 13.0063 -11.0529 11.0156 0
M  V30 222 C 13.9727 -10.3598 10.1470 0
M  V30 223 C 12.2645 -10.3656 11.9548 0
M  V30 224 C 12.3791 -8.9152 12.1765 0
M  V30 225 N 13.1872 -8.5159 13.2840 0
M  V30 226 H 11.1589 -10.2823 14.6738 0
M  V30 227 H 10.0728 -9.4979 13.3822 0
M  V30 228 H 9.6935 -11.0832 14.1002 0
M  V30 229 H 10.4751 -14.3076 13.3859 0
M  V30 230 H 10.4086 -12.9070 14.5007 0
M  V30 231 H 12.4290 -15.0944 10.8282 0
M  V30 232 H 10.7107 -14.9041 11.4544 0
M  V30 233 H 12.1047 -15.1055 12.5462 0
M  V30 234 H 14.4989 -12.4844 9.5728 0
M  V30 235 H 14.0186 -14.1146 10.2453 0
M  V30 236 H 13.7958 -10.6868 9.0762 0
M  V30 237 H 15.0220 -10.7293 10.3622 0
M  V30 238 H 13.9190 -9.2806 10.1114 0
M  V30 239 H 11.3588 -8.4523 12.3891 0
M  V30 240 H 12.6647 -8.4274 11.2277 0
M  V30 241 C -2.8779 13.0426 -13.0426 0
M  V30 242 C -1.4122 13.0559 -13.0437 0
M  V30 243 C -0.6931 14.2282 -13.1346 0
M  V30 244 F -1.4069 15.3931 -13.2250 0
M  V30 245 C 0.6861 14.2188 -13.1339 0
M  V30 246 F 1.3867 15.3756 -13.2236 0
M  V30 247 C 1.4183 13.0526 -13.0434 0
M  V30 248 C 2.8779 13.0426 -13.0426 0
M  V30 249 C 0.6996 11.8768 -12.9522 0
M  V30 250 F 1.3877 10.6954 -12.8605 0
M  V30 251 C -0.6859 11.8874 -12.9530 0
M  V30 252 F -1.3967 10.7352 -12.8636 0
M  V30 253 H -3.4661 13.1058 -12.1596 0
M  V30 254 H 3.4190 12.9649 -13.9967 0
M  V30 255 C -12.9703 2.7572 -13.2356 0
M  V30 256 C -12.9712 1.2915 -13.2489 0
M  V30 257 C -13.0503 0.5724 -14.4221 0
M  V30 258 F -13.1289 1.2862 -15.5879 0
M  V30 259 C -13.0497 -0.8068 -14.4127 0
M  V30 260 F -13.1277 -1.5074 -15.5703 0
M  V30 261 C -12.9710 -1.5390 -13.2456 0
M  V30 262 C -12.9703 -2.9986 -13.2356 0
M  V30 263 C -12.8917 -0.8203 -12.0690 0
M  V30 264 F -12.8120 -1.5084 -10.8867 0
M  V30 265 C -12.8924 0.5652 -12.0796 0
M  V30 266 F -12.8147 1.2760 -10.9265 0
M  V30 267 H -12.0867 3.3454 -13.2898 0
M  V30 268 H -13.9251 -3.5397 -13.1676 0
M  V30 269 C -2.7572 -12.9703 -13.2356 0
M  V30 270 C -1.2915 -12.9712 -13.2489 0
M  V30 271 C -0.5724 -13.0503 -14.4221 0
M  V30 272 F -1.2862 -13.1289 -15.5879 0
M  V30 273 C 0.8068 -13.0497 -14.4127 0
M  V30 274 F 1.5074 -13.1277 -15.5703 0
M  V30 275 C 1.5390 -12.9710 -13.2456 0
M  V30 276 C 2.9986 -12.9703 -13.2356 0
M  V30 277 C 0.8203 -12.8917 -12.0690 0
M  V30 278 F 1.5084 -12.8120 -10.8867 0
M  V30 279 C -0.5652 -12.8924 -12.0796 0
M  V30 280 F -1.2760 -12.8147 -10.9265 0
M  V30 281 H -3.3454 -12.0867 -13.2898 0
M  V30 282 H 3.5397 -13.9251 -13.1676 0
M  V30 283 C 13.0426 2.8056 -13.3563 0
M  V30 284 C 13.0559 1.3399 -13.3575 0
M  V30 285 C 14.2270 0.6208 -13.4624 0
M  V30 286 F 15.3908 1.3346 -13.5666 0
M  V30 287 C 14.2176 -0.7584 -13.4616 0
M  V30 288 F 15.3733 -1.4590 -13.5651 0
M  V30 289 C 13.0526 -1.4906 -13.3572 0
M  V30 290 C 13.0426 -2.9502 -13.3563 0
M  V30 291 C 11.8780 -0.7719 -13.2520 0
M  V30 292 F 10.6977 -1.4600 -13.1463 0
M  V30 293 C 11.8885 0.6136 -13.2530 0
M  V30 294 F 10.7375 1.3244 -13.1499 0
M  V30 295 H 13.1163 3.3938 -12.4741 0
M  V30 296 H 12.9536 -3.4913 -14.3094 0
M  V30 297 C -2.8779 13.0426 13.0426 0
M  V30 298 C -1.4122 13.0437 13.0559 0
M  V30 299 C -0.6931 13.1346 14.2282 0
M  V30 300 F -1.4069 13.2250 15.3931 0
M  V30 301 C 0.6861 13.1339 14.2188 0
M  V30 302 F 1.3867 13.2236 15.3756 0
M  V30 303 C 1.4183 13.0434 13.0526 0
M  V30 304 C 2.8779 13.0426 13.0426 0
M  V30 305 C 0.6996 12.9522 11.8768 0
M  V30 306 F 1.3877 12.8605 10.6954 0
M  V30 307 C -0.6859 12.9530 11.8874 0
M  V30 308 F -1.3967 12.8636 10.7352 0
M  V30 309 H -3.4661 12.1596 13.1058 0
M  V30 310 H 3.4190 13.9967 12.9649 0
M  V30 311 C -13.1149 2.6849 13.1633 0
M  V30 312 C -13.1282 1.2192 13.1644 0
M  V30 313 C -14.3003 0.5001 13.2575 0
M  V30 314 F -15.4651 1.2139 13.3500 0
M  V30 315 C -14.2909 -0.8791 13.2568 0
M  V30 316 F -15.4476 -1.5797 13.3486 0
M  V30 317 C -13.1249 -1.6113 13.1641 0
M  V30 318 C -13.1149 -3.0709 13.1633 0
M  V30 319 C -11.9493 -0.8926 13.0707 0
M  V30 320 F -10.7681 -1.5807 12.9769 0
M  V30 321 C -11.9599 0.4929 13.0716 0
M  V30 322 F -10.8078 1.2037 12.9800 0
M  V30 323 H -13.1797 3.2731 12.2804 0
M  V30 324 H -13.0354 -3.6120 14.1173 0
M  V30 325 C -2.6849 -13.1149 13.1633 0
M  V30 326 C -1.2192 -13.1282 13.1644 0
M  V30 327 C -0.5001 -14.3003 13.2575 0
M  V30 328 F -1.2139 -15.4651 13.3500 0
M  V30 329 C 0.8791 -14.2909 13.2568 0
M  V30 330 F 1.5797 -15.4476 13.3486 0
M  V30 331 C 1.6113 -13.1249 13.1641 0
M  V30 332 C 3.0709 -13.1149 13.1633 0
M  V30 333 C 0.8926 -11.9493 13.0707 0
M  V30 334 F 1.5807 -10.7681 12.9769 0
M  V30 335 C -0.4929 -11.9599 13.0716 0
M  V30 336 F -1.2037 -10.8078 12.9800 0
M  V30 337 H -3.2731 -13.1797 12.2804 0
M  V30 338 H 3.6120 -13.0354 14.1173 0
M  V30 339 C 13.0426 2.9502 13.3563 0
M  V30 340 C 13.0435 1.4845 13.3696 0
M  V30 341 C 13.1205 0.7655 14.5429 0
M  V30 342 F 13.1971 1.4792 15.7088 0
M  V30 343 C 13.1199 -0.6138 14.5335 0
M  V30 344 F 13.1959 -1.3144 15.6913 0
M  V30 345 C 13.0433 -1.3460 13.3663 0
M  V30 346 C 13.0426 -2.8056 13.3563 0
M  V30 347 C 12.9660 -0.6273 12.1895 0
M  V30 348 F 12.8884 -1.3153 11.0071 0
M  V30 349 C 12.9667 0.7582 12.2001 0
M  V30 350 F 12.8910 1.4690 11.0469 0
M  V30 351 H 12.1589 3.5384 13.4090 0
M  V30 352 H 13.9976 -3.3467 13.2899 0
M  V30 353 C -13.0426 13.3563 -2.8056 0
M  V30 354 C -13.0559 13.3575 -1.3399 0
M  V30 355 C -14.2270 13.4624 -0.6208 0
M  V30 356 F -15.3908 13.5666 -1.3346 0
M  V30 357 C -14.2176 13.4616 0.7584 0
M  V30 358 F -15.3733 13.5651 1.4590 0
M  V30 359 C -13.0526 13.3572 1.4906 0
M  V30 360 C -13.0426 13.3563 2.9502 0
M  V30 361 C -11.8780 13.2520 0.7719 0
M  V30 362 F -10.6977 13.1463 1.4600 0
M  V30 363 C -11.8885 13.2530 -0.6136 0
M  V30 364 F -10.7375 13.1499 -1.3244 0
M  V30 365 H -13.1163 12.4741 -3.3938 0
M  V30 366 H -12.9536 14.3094 3.4913 0
M  V30 367 C -13.3563 -13.0426 -2.8056 0
M  V30 368 C -13.3575 -13.0559 -1.3399 0
M  V30 369 C -13.4624 -14.2270 -0.6208 0
M  V30 370 F -13.5666 -15.3908 -1.3346 0
M  V30 371 C -13.4616 -14.2176 0.7584 0
M  V30 372 F -13.5651 -15.3733 1.4590 0
M  V30 373 C -13.3572 -13.0526 1.4906 0
M  V30 374 C -13.3563 -13.0426 2.9502 0
M  V30 375 C -13.2520 -11.8780 0.7719 0
M  V30 376 F -13.1463 -10.6977 1.4600 0
M  V30 377 C -13.2530 -11.8885 -0.6136 0
M  V30 378 F -13.1499 -10.7375 -1.3244 0
M  V30 379 H -12.4741 -13.1163 -3.3938 0
M  V30 380 H -14.3094 -12.9536 3.4913 0
M  V30 381 C 13.0426 13.3563 -2.9502 0
M  V30 382 C 13.0435 13.3696 -1.4845 0
M  V30 383 C 13.1205 14.5429 -0.7655 0
M  V30 384 F 13.1971 15.7088 -1.4792 0
M  V30 385 C 13.1199 14.5335 0.6138 0
M  V30 386 F 13.1959 15.6913 1.3144 0
M  V30 387 C 13.0433 13.3663 1.3460 0
M  V30 388 C 13.0426 13.3563 2.8056 0
M  V30 389 C 12.9660 12.1895 0.6273 0
M  V30 390 F 12.8884 11.0071 1.3153 0
M  V30 391 C 12.9667 12.2001 -0.7582 0
M  V30 392 F 12.8910 11.0469 -1.4690 0
M  V30 393 H 12.1589 13.4090 -3.5384 0
M  V30 394 H 13.9976 13.2899 3.3467 0
M  V30 395 C 13.0426 -13.3563 -2.8056 0
M  V30 396 C 13.0559 -13.3575 -1.3399 0
M  V30 397 C 14.2270 -13.4624 -0.6208 0
M  V30 398 F 15.3908 -13.5666 -1.3346 0
M  V30 399 C 14.2176 -13.4616 0.7584 0
M  V30 400 F 15.3733 -13.5651 1.4590 0
M  V30 401 C 13.0526 -13.3572 1.4906 0
M  V30 402 C 13.0426 -13.3563 2.9502 0
M  V30 403 C 11.8780 -13.2520 0.7719 0
M  V30 404 F 10.6977 -13.1463 1.4600 0
M  V30 405 C 11.8885 -13.2530 -0.6136 0
M  V30 406 F 10.7375 -13.1499 -1.3244 0
M  V30 407 H 13.1163 -12.4741 -3.3938 0
M  V30 408 H 12.9536 -14.3094 3.4913 0
M  V30 END ATOM
M  V30 BEGIN BOND
M  V30 1 1 1 2
M  V30 2 2 2 3
M  V30 3 1 3 4
M  V30 4 1 4 5
M  V30 5 1 3 6
M  V30 6 1 6 7
M  V30 7 2 6 8
M  V30 8 1 8 9
M  V30 9 1 9 10
M  V30 10 1 8 11
M  V30 11 1 11 12
M  V30 12 2 11 13
M  V30 13 1 13 14
M  V30 14 1 14 15
M  V30 15 1 13 2
M  V30 16 1 1 16
M  V30 17 1 1 17
M  V30 18 1 1 18
M  V30 19 1 4 19
M  V30 20 1 4 20
M  V30 21 1 7 21
M  V30 22 1 7 22
M  V30 23 1 7 23
M  V30 24 1 9 24
M  V30 25 1 9 25
M  V30 26 1 12 26
M  V30 27 1 12 27
M  V30 28 1 12 28
M  V30 29 1 14 29
M  V30 30 1 14 30
M  V30 31 1 31 32
M  V30 32 2 32 33
M  V30 33 1 33 34
M  V30 34 1 34 35
M  V30 35 1 33 36
M  V30 36 1 36 37
M  V30 37 2 36 38
M  V30 38 1 38 39
M  V30 39 1 39 40
M  V30 40 1 38 41
M  V30 41 1 41 42
M  V30 42 2 41 43
M  V30 43 1 43 44
M  V30 44 1 44 45
M  V30 45 1 43 32
M  V30 46 1 31 46
M  V30 47 1 31 47
M  V30 48 1 31 48
M  V30 49 1 34 49
M  V30 50 1 34 50
M  V30 51 1 37 51
M  V30 52 1 37 52
M  V30 53 1 37 53
M  V30 54 1 39 54
M  V30 55 1 39 55
M  V30 56 1 42 56
M  V30 57 1 42 57
M  V30 58 1 42 58
M  V30 59 1 44 59
M  V30 60 1 44 60
M  V30 61 1 61 62
M  V30 62 2 62 63
M  V30 63 1 63 64
M  V30 64 1 64 65
M  V30 65 1 63 66
M  V30 66 1 66 67
M  V30 67 2 66 68
M  V30 68 1 68 69
M  V30 69 1 69 70
M  V30 70 1 68 71
M  V30 71 1 71 72
M  V30 72 2 71 73
M  V30 73 1 73 74
M  V30 74 1 74 75
M  V30 75 1 73 62
M  V30 76 1 61 76
M  V30 77 1 61 77
M  V30 78 1 61 78
M  V30 79 1 64 79
M  V30 80 1 64 80
M  V30 81 1 67 81
M  V30 82 1 67 82
M  V30 83 1 67 83
M  V30 84 1 69 84
M  V30 85 1 69 85
M  V30 86 1 72 86
M  V30 87 1 72 87
M  V30 88 1 72 88
M  V30 89 1 74 89
M  V30 90 1 74 90
M  V30 91 1 91 92
M  V30 92 2 92 93
M  V30 93 1 93 94
M  V30 94 1 94 95
M  V30 95 1 93 96
M  V30 96 1 96 97
M  V30 97 2 96 98
M  V30 98 1 98 99
M  V30 99 1 99 100
M  V30 100 1 98 101
M  V30 101 1 101 102
M  V30 102 2 101 103
M  V30 103 1 103 104
M  V30 104 1 104 105
M  V30 105 1 103 92
M  V30 106 1 91 106
M  V30 107 1 91 107
M  V30 108 1 91 108
M  V30 109 1 94 109
M  V30 110 1 94 110
M  V30 111 1 97 111
M  V30 112 1 97 112
M  V30 113 1 97 113
M  V30 114 1 99 114
M  V30 115 1 99 115
M  V30 116 1 102 116
M  V30 117 1 102 117
M  V30 118 1 102 118
M  V30 119 1 104 119
M  V30 120 1 104 120
M  V30 121 1 121 122
M  V30 122 2 122 123
M  V30 123 1 123 124
M  V30 124 1 124 125
M  V30 125 1 123 126
M  V30 126 1 126 127
M  V30 127 2 126 128
M  V30 128 1 128 129
M  V30 129 1 129 130
M  V30 130 1 128 131
M  V30 131 1 131 132
M  V30 132 2 131 133
M  V30 133 1 133 134
M  V30 134 1 134 135
M  V30 135 1 133 122
M  V30 136 1 121 136
M  V30 137 1 121 137
M  V30 138 1 121 138
M  V30 139 1 124 139
M  V30 140 1 124 140
M  V30 141 1 127 141
M  V30 142 1 127 142
M  V30 143 1 127 143
M  V30 144 1 129 144
M  V30 145 1 129 145
M  V30 146 1 132 146
M  V30 147 1 132 147
M  V30 148 1 132 148
M  V30 149 1 134 149
M  V30 150 1 134 150
M  V30 151 1 151 152
M  V30 152 2 152 153
M  V30 153 1 153 154
M  V30 154 1 154 155
M  V30 155 1 153 156
M  V30 156 1 156 157
M  V30 157 2 156 158
M  V30 158 1 158 159
M  V30 159 1 159 160
M  V30 160 1 158 161
M  V30 161 1 161 162
M  V30 162 2 161 163
M  V30 163 1 163 164
M  V30 164 1 164 165
M  V30 165 1 163 152
M  V30 166 1 151 166
M  V30 167 1 151 167
M  V30 168 1 151 168
M  V30 169 1 154 169
M  V30 170 1 154 170
M  V30 171 1 157 171
M  V30 172 1 157 172
M  V30 173 1 157 173
M  V30 174 1 159 174
M  V30 175 1 159 175
M  V30 176 1 162 176
M  V30 177 1 162 177
M  V30 178 1 162 178
M  V30 179 1 164 179
M  V30 180 1 164 180
M  V30 181 1 181 182
M  V30 182 2 182 183
M  V30 183 1 183 184
M  V30 184 1 184 185
M  V30 185 1 183 186
M  V30 186 1 186 187
M  V30 187 2 186 188
M  V30 188 1 188 189
M  V30 189 1 189 190
M  V30 190 1 188 191
M  V30 191 1 191 192
M  V30 192 2 191 193
M  V30 193 1 193 194
M  V30 194 1 194 195
M  V30 195 1 193 182
M  V30 196 1 181 196
M  V30 197 1 181 197
M  V30 198 1 181 198
M  V30 199 1 184 199
M  V30 200 1 184 200
M  V30 201 1 187 201
M  V30 202 1 187 202
M  V30 203 1 187 203
M  V30 204 1 189 204
M  V30 205 1 189 205
M  V30 206 1 192 206
M  V30 207 1 192 207
M  V30 208 1 192 208
M  V30 209 1 194 209
M  V30 210 1 194 210
M  V30 211 1 211 212
M  V30 212 2 212 213
M  V30 213 1 213 214
M  V30 214 1 214 215
M  V30 215 1 213 216
M  V30 216 1 216 217
M  V30 217 2 216 218
M  V30 218 1 218 219
M  V30 219 1 219 220
M  V30 220 1 218 221
M  V30 221 1 221 222
M  V30 222 2 221 223
M  V30 223 1 223 224
M  V30 224 1 224 225
M  V30 225 1 223 212
M  V30 226 1 211 226
M  V30 227 1 211 227
M  V30 228 1 211 228
M  V30 229 1 214 229
M  V30 230 1 214 230
M  V30 231 1 217 231
M  V30 232 1 217 232
M  V30 233 1 217 233
M  V30 234 1 219 234
M  V30 235 1 219 235
M  V30 236 1 222 236
M  V30 237 1 222 237
M  V30 238 1 222 238
M  V30 239 1 224 239
M  V30 240 1 224 240
M  V30 241 1 241 242
M  V30 242 2 242 243
M  V30 243 1 243 244
M  V30 244 1 243 245
M  V30 245 1 245 246
M  V30 246 2 245 247
M  V30 247 1 247 248
M  V30 248 1 247 249
M  V30 249 1 249 250
M  V30 250 2 249 251
M  V30 251 1 251 252
M  V30 252 1 251 242
M  V30 253 1 241 253
M  V30 254 1 248 254
M  V30 255 1 255 256
M  V30 256 2 256 257
M  V30 257 1 257 258
M  V30 258 1 257 259
M  V30 259 1 259 260
M  V30 260 2 259 261
M  V30 261 1 261 262
M  V30 262 1 261 263
M  V30 263 1 263 264
M  V30 264 2 263 265
M  V30 265 1 265 266
M  V30 266 1 265 256
M  V30 267 1 255 267
M  V30 268 1 262 268
M  V30 269 1 269 270
M  V30 270 2 270 271
M  V30 271 1 271 272
M  V30 272 1 271 273
M  V30 273 1 273 274
M  V30 274 2 273 275
M  V30 275 1 275 276
M  V30 276 1 275 277
M  V30 277 1 277 278
M  V30 278 2 277 279
M  V30 279 1 279 280
M  V30 280 1 279 270
M  V30 281 1 269 281
M  V30 282 1 276 282
M  V30 283 1 283 284
M  V30 284 2 284 285
M  V30 285 1 285 286
M  V30 286 1 285 287
M  V30 287 1 287 288
M  V30 288 2 287 289
M  V30 289 1 289 290
M  V30 290 1 289 291
M  V30 291 1 291 292
M  V30 292 2 291 293
M  V30 293 1 293 294
M  V30 294 1 293 284
M  V30 295 1 283 295
M  V30 296 1 290 296
M  V30 297 1 297 298
M  V30 298 2 298 299
M  V30 299 1 299 300
M  V30 300 1 299 301
M  V30 301 1 301 302
M  V30 302 2 301 303
M  V30 303 1 303 304
M  V30 304 1 303 305
M  V30 305 1 305 306
M  V30 306 2 305 307
M  V30 307 1 307 308
M  V30 308 1 307 298
M  V30 309 1 297 309
M  V30 310 1 304 310
M  V30 311 1 311 312
M  V30 312 2 312 313
M  V30 313 1 313 314
M  V30 314 1 313 315
M  V30 315 1 315 316
M  V30 316 2 315 317
M  V30 317 1 317 318
M  V30 318 1 317 319
M  V30 319 1 319 320
M  V30 320 2 319 321
M  V30 321 1 321 322
M  V30 322 1 321 312
M  V30 323 1 311 323
M  V30 324 1 318 324
M  V30 325 1 325 326
M  V30 326 2 326 327
M  V30 327 1 327 328
M  V30 328 1 327 329
M  V30 329 1 329 330
M  V30 330 2 329 331
M  V30 331 1 331 332
M  V30 332 1 331 333
M  V30 333 1 333 334
M  V30 334 2 333 335
M  V30 335 1 335 336
M  V30 336 1 335 326
M  V30 337 1 325 337
M  V30 338 1 332 338
M  V30 339 1 339 340
M  V30 340 2 340 341
M  V30 341 1 341 342
M  V30 342 1 341 343
M  V30 343 1 343 344
M  V30 344 2 343 345
M  V30 345 1 345 346
M  V30 346 1 345 347
M  V30 347 1 347 348
M  V30 348 2 347 349
M  V30 349 1 349 350
M  V30 350 1 349 340
M  V30 351 1 339 351
M  V30 352 1 346 352
M  V30 353 1 353 354
M  V30 354 2 354 355
M  V30 355 1 355 356
M  V30 356 1 355 357
M  V30 357 1 357 358
M  V30 358 2 357 359
M  V30 359 1 359 360
M  V30 360 1 359 361
M  V30 361 1 361 362
M  V30 362 2 361 363
M  V30 363 1 363 364
M  V30 364 1 363 354
M  V30 365 1 353 365
M  V30 366 1 360 366
M  V30 367 1 367 368
M  V30 368 2 368 369
M  V30 369 1 369 370
M  V30 370 1 369 371
M  V30 371 1 371 372
M  V30 372 2 371 373
M  V30 373 1 373 374
M  V30 374 1 373 375
M  V30 375 1 375 376
M  V30 376 2 375 377
M  V30 377 1 377 378
M  V30 378 1 377 368
M  V30 379 1 367 379
M  V30 380 1 374 380
M  V30 381 1 381 382
M  V30 382 2 382 383
M  V30 383 1 383 384
M  V30 384 1 383 385
M  V30 385 1 385 386
M  V30 386 2 385 387
M  V30 387 1 387 388
M  V30 388 1 387 389
M  V30 389 1 389 390
M  V30 390 2 389 391
M  V30 391 1 391 392
M  V30 392 1 391 382
M  V30 393 1 381 393
M  V30 394 1 388 394
M  V30 395 1 395 396
M  V30 396 2 396 397
M  V30 397 1 397 398
M  V30 398 1 397 399
M  V30 399 1 399 400
M  V30 400 2 399 401
M  V30 401 1 401 402
M  V30 402 1 401 403
M  V30 403 1 403 404
M  V30 404 2 403 405
M  V30 405 1 405 406
M  V30 406 1 405 396
M  V30 407 1 395 407
M  V30 408 1 402 408
M  V30 409 2 5 241
M  V30 410 2 65 248
M  V30 411 2 10 255
M  V30 412 2 35 262
M  V30 413 2 40 269
M  V30 414 2 95 276
M  V30 415 2 75 283
M  V30 416 2 100 290
M  V30 417 2 125 297
M  V30 418 2 185 304
M  V30 419 2 135 311
M  V30 420 2 155 318
M  V30 421 2 165 325
M  V30 422 2 215 332
M  V30 423 2 190 339
M  V30 424 2 225 346
M  V30 425 2 15 353
M  V30 426 2 130 360
M  V30 427 2 45 367
M  V30 428 2 160 374
M  V30 429 2 70 381
M  V30 430 2 195 388
M  V30 431 2 105 395
M  V30 432 2 220 402
M  V30 END BOND
M  V30 END CTAB
M  END

$$$$
