
     RDKit          3D

  0  0  0  0  0  0  0  0  0  0999 V3000
M  V30 BEGIN CTAB
M  V30 COUNTS 564 588 0 0 0
M  V30 BEGIN ATOM
M  V30 1 C -10.5348 13.7770 -10.4200 0
M  V30 2 C -11.3784 12.7441 -11.0850 0
M  V30 3 C -11.2205 12.6183 -12.4500 0
M  V30 4 C -10.2747 13.4628 -13.2313 0
M  V30 5 N -8.9019 13.0426 -13.0426 0
M  V30 6 C -11.9682 11.6685 -13.1586 0
M  V30 7 C -11.7826 11.5611 -14.6385 0
M  V30 8 C -12.8378 10.8975 -12.4315 0
M  V30 9 C -13.6411 9.8646 -13.1357 0
M  V30 10 N -12.8980 8.6605 -13.4286 0
M  V30 11 C -13.0063 11.0156 -11.0529 0
M  V30 12 C -13.9727 10.1470 -10.3598 0
M  V30 13 C -12.2645 11.9548 -10.3656 0
M  V30 14 C -12.3791 12.1765 -8.9152 0
M  V30 15 N -13.1872 13.2840 -8.5159 0
M  V30 16 H -11.1589 14.6738 -10.2823 0
M  V30 17 H -10.0728 13.3822 -9.4979 0
M  V30 18 H -9.6935 14.1002 -11.0832 0
M  V30 19 H -10.4751 13.3859 -14.3076 0
M  V30 20 H -10.4086 14.5007 -12.9070 0
M  V30 21 H -12.4290 10.8282 -15.0944 0
M  V30 22 H -10.7107 11.4544 -14.9041 0
M  V30 23 H -12.1047 12.5462 -15.1055 0
M  V30 24 H -14.4989 9.5728 -12.4844 0
M  V30 25 H -14.0186 10.2453 -14.1146 0
M  V30 26 H -13.7958 9.0762 -10.6868 0
M  V30 27 H -15.0220 10.3622 -10.7293 0
M  V30 28 H -13.9190 10.1114 -9.2806 0
M  V30 29 H -11.3588 12.3891 -8.4523 0
M  V30 30 H -12.6647 11.2277 -8.4274 0
M  V30 31 C -13.7770 -10.5348 -10.4200 0
M  V30 32 C -12.7441 -11.3784 -11.0850 0
M  V30 33 C -12.6183 -11.2205 -12.4500 0
M  V30 34 C -13.4628 -10.2747 -13.2313 0
M  V30 35 N -13.0426 -8.9019 -13.0426 0
M  V30 36 C -11.6685 -11.9682 -13.1586 0
M  V30 37 C -11.5611 -11.7826 -14.6385 0
M  V30 38 C -10.8975 -12.8378 -12.4315 0
M  V30 39 C -9.8646 -13.6411 -13.1357 0
M  V30 40 N -8.6605 -12.8980 -13.4286 0
M  V30 41 C -11.0156 -13.0063 -11.0529 0
M  V30 42 C -10.1470 -13.9727 -10.3598 0
M  V30 43 C -11.9548 -12.2645 -10.3656 0
M  V30 44 C -12.1765 -12.3791 -8.9152 0
M  V30 45 N -13.2840 -13.1872 -8.5159 0
M  V30 46 H -14.6738 -11.1589 -10.2823 0
M  V30 47 H -13.3822 -10.0728 -9.4979 0
M  V30 48 H -14.1002 -9.6935 -11.0832 0
M  V30 49 H -13.3859 -10.4751 -14.3076 0
M  V30 50 H -14.5007 -10.4086 -12.9070 0
M  V30 51 H -10.8282 -12.4290 -15.0944 0
M  V30 52 H -11.4544 -10.7107 -14.9041 0
M  V30 53 H -12.5462 -12.1047 -15.1055 0
M  V30 54 H -9.5728 -14.4989 -12.4844 0
M  V30 55 H -10.2453 -14.0186 -14.1146 0
M  V30 56 H -9.0762 -13.7958 -10.6868 0
M  V30 57 H -10.3622 -15.0220 -10.7293 0
M  V30 58 H -10.1114 -13.9190 -9.2806 0
M  V30 59 H -12.3891 -11.3588 -8.4523 0
M  V30 60 H -11.2277 -12.6647 -8.4274 0
M  V30 61 C 10.5348 10.4200 -13.7770 0
M  V30 62 C 11.3784 11.0850 -12.7441 0
M  V30 63 C 11.2205 12.4500 -12.6183 0
M  V30 64 C 10.2747 13.2313 -13.4628 0
M  V30 65 N 8.9019 13.0426 -13.0426 0
M  V30 66 C 11.9682 13.1586 -11.6685 0
M  V30 67 C 11.7826 14.6385 -11.5611 0
M  V30 68 C 12.8378 12.4315 -10.8975 0
M  V30 69 C 13.6411 13.1357 -9.8646 0
M  V30 70 N 12.8980 13.4286 -8.6605 0
M  V30 71 C 13.0063 11.0529 -11.0156 0
M  V30 72 C 13.9727 10.3598 -10.1470 0
M  V30 73 C 12.2645 10.3656 -11.9548 0
M  V30 74 C 12.3791 8.9152 -12.1765 0
M  V30 75 N 13.1872 8.5159 -13.2840 0
M  V30 76 H 11.1589 10.2823 -14.6738 0
M  V30 77 H 10.0728 9.4979 -13.3822 0
M  V30 78 H 9.6935 11.0832 -14.1002 0
M  V30 79 H 10.4751 14.3076 -13.3859 0
M  V30 80 H 10.4086 12.9070 -14.5007 0
M  V30 81 H 12.4290 15.0944 -10.8282 0
M  V30 82 H 10.7107 14.9041 -11.4544 0
M  V30 83 H 12.1047 15.1055 -12.5462 0
M  V30 84 H 14.4989 12.4844 -9.5728 0
M  V30 85 H 14.0186 14.1146 -10.2453 0
M  V30 86 H 13.7958 10.6868 -9.0762 0
M  V30 87 H 15.0220 10.7293 -10.3622 0
M  V30 88 H 13.9190 9.2806 -10.1114 0
M  V30 89 H 11.3588 8.4523 -12.3891 0
M  V30 90 H 12.6647 8.4274 -11.2277 0
M  V30 91 C 10.5348 -13.7770 -10.4200 0
M  V30 92 C 11.3784 -12.7441 -11.0850 0
M  V30 93 C 11.2205 -12.6183 -12.4500 0
M  V30 94 C 10.2747 -13.4628 -13.2313 0
M  V30 95 N 8.9019 -13.0426 -13.0426 0
M  V30 96 C 11.9682 -11.6685 -13.1586 0
M  V30 97 C 11.7826 -11.5611 -14.6385 0
M  V30 98 C 12.8378 -10.8975 -12.4315 0
M  V30 99 C 13.6411 -9.8646 -13.1357 0
M  V30 100 N 12.8980 -8.6605 -13.4286 0
M  V30 101 C 13.0063 -11.0156 -11.0529 0
M  V30 102 C 13.9727 -10.1470 -10.3598 0
M  V30 103 C 12.2645 -11.9548 -10.3656 0
M  V30 104 C 12.3791 -12.1765 -8.9152 0
M  V30 105 N 13.1872 -13.2840 -8.5159 0
M  V30 106 H 11.1589 -14.6738 -10.2823 0
M  V30 107 H 10.0728 -13.3822 -9.4979 0
M  V30 108 H 9.6935 -14.1002 -11.0832 0
M  V30 109 H 10.4751 -13.3859 -14.3076 0
M  V30 110 H 10.4086 -14.5007 -12.9070 0
M  V30 111 H 12.4290 -10.8282 -15.0944 0
M  V30 112 H 10.7107 -11.4544 -14.9041 0
M  V30 113 H 12.1047 -12.5462 -15.1055 0
M  V30 114 H 14.4989 -9.5728 -12.4844 0
M  V30 115 H 14.0186 -10.2453 -14.1146 0
M  V30 116 H 13.7958 -9.0762 -10.6868 0
M  V30 117 H 15.0220 -10.3622 -10.7293 0
M  V30 118 H 13.9190 -10.1114 -9.2806 0
M  V30 119 H 11.3588 -12.3891 -8.4523 0
M  V30 120 H 12.6647 -11.2277 -8.4274 0
M  V30 121 C -10.5348 10.4200 13.7770 0
M  V30 122 C -11.3784 11.0850 12.7441 0
M  V30 123 C -11.2205 12.4500 12.6183 0
M  V30 124 C -10.2747 13.2313 13.4628 0
M  V30 125 N -8.9019 13.0426 13.0426 0
M  V30 126 C -11.9682 13.1586 11.6685 0
M  V30 127 C -11.7826 14.6385 11.5611 0
M  V30 128 C -12.8378 12.4315 10.8975 0
M  V30 129 C -13.6411 13.1357 9.8646 0
M  V30 130 N -12.8980 13.4286 8.6605 0
M  V30 131 C -13.0063 11.0529 11.0156 0
M  V30 132 C -13.9727 10.3598 10.1470 0
M  V30 133 C -12.2645 10.3656 11.9548 0
M  V30 134 C -12.3791 8.9152 12.1765 0
M  V30 135 N -13.1872 8.5159 13.2840 0
M  V30 136 H -11.1589 10.2823 14.6738 0
M  V30 137 H -10.0728 9.4979 13.3822 0
M  V30 138 H -9.6935 11.0832 14.1002 0
M  V30 139 H -10.4751 14.3076 13.3859 0
M  V30 140 H -10.4086 12.9070 14.5007 0
M  V30 141 H -12.4290 15.0944 10.8282 0
M  V30 142 H -10.7107 14.9041 11.4544 0
M  V30 143 H -12.1047 15.1055 12.5462 0
M  V30 144 H -14.4989 12.4844 9.5728 0
M  V30 145 H -14.0186 14.1146 10.2453 0
M  V30 146 H -13.7958 10.6868 9.0762 0
M  V30 147 H -15.0220 10.7293 10.3622 0
M  V30 148 H -13.9190 9.2806 10.1114 0
M  V30 149 H -11.3588 8.4523 12.3891 0
M  V30 150 H -12.6647 8.4274 11.2277 0
M  V30 151 C -10.4200 -10.5348 13.7770 0
M  V30 152 C -11.0850 -11.3784 12.7441 0
M  V30 153 C -12.4500 -11.2205 12.6183 0
M  V30 154 C -13.2313 -10.2747 13.4628 0
M  V30 155 N -13.0426 -8.9019 13.0426 0
M  V30 156 C -13.1586 -11.9682 11.6685 0
M  V30 157 C -14.6385 -11.7826 11.5611 0
M  V30 158 C -12.4315 -12.8378 10.8975 0
M  V30 159 C -13.1357 -13.6411 9.8646 0
M  V30 160 N -13.4286 -12.8980 8.6605 0
M  V30 161 C -11.0529 -13.0063 11.0156 0
M  V30 162 C -10.3598 -13.9727 10.1470 0
M  V30 163 C -10.3656 -12.2645 11.9548 0
M  V30 164 C -8.9152 -12.3791 12.1765 0
M  V30 165 N -8.5159 -13.1872 13.2840 0
M  V30 166 H -10.2823 -11.1589 14.6738 0
M  V30 167 H -9.4979 -10.0728 13.3822 0
M  V30 168 H -11.0832 -9.6935 14.1002 0
M  V30 169 H -14.3076 -10.4751 13.3859 0
M  V30 170 H -12.9070 -10.4086 14.5007 0
M  V30 171 H -15.0944 -12.4290 10.8282 0
M  V30 172 H -14.9041 -10.7107 11.4544 0
M  V30 173 H -15.1055 -12.1047 12.5462 0
M  V30 174 H -12.4844 -14.4989 9.5728 0
M  V30 175 H -14.1146 -14.0186 10.2453 0
M  V30 176 H -10.6868 -13.7958 9.0762 0
M  V30 177 H -10.7293 -15.0220 10.3622 0
M  V30 178 H -9.2806 -13.9190 10.1114 0
M  V30 179 H -8.4523 -11.3588 12.3891 0
M  V30 180 H -8.4274 -12.6647 11.2277 0
M  V30 181 C 10.5348 13.7770 10.4200 0
M  V30 182 C 11.3784 12.7441 11.0850 0
M  V30 183 C 11.2205 12.6183 12.4500 0
M  V30 184 C 10.2747 13.4628 13.2313 0
M  V30 185 N 8.9019 13.0426 13.0426 0
M  V30 186 C 11.9682 11.6685 13.1586 0
M  V30 187 C 11.7826 11.5611 14.6385 0
M  V30 188 C 12.8378 10.8975 12.4315 0
M  V30 189 C 13.6411 9.8646 13.1357 0
M  V30 190 N 12.8980 8.6605 13.4286 0
M  V30 191 C 13.0063 11.0156 11.0529 0
M  V30 192 C 13.9727 10.1470 10.3598 0
M  V30 193 C 12.2645 11.9548 10.3656 0
M  V30 194 C 12.3791 12.1765 8.9152 0
M  V30 195 N 13.1872 13.2840 8.5159 0
M  V30 196 H 11.1589 14.6738 10.2823 0
M  V30 197 H 10.0728 13.3822 9.4979 0
M  V30 198 H 9.6935 14.1002 11.0832 0
M  V30 199 H 10.4751 13.3859 14.3076 0
M  V30 200 H 10.4086 14.5007 12.9070 0
M  V30 201 H 12.4290 10.8282 15.0944 0
M  V30 202 H 10.7107 11.4544 14.9041 0
M  V30 203 H 12.1047 12.5462 15.1055 0
M  V30 204 H 14.4989 9.5728 12.4844 0
M  V30 205 H 14.0186 10.2453 14.1146 0
M  V30 206 H 13.7958 9.0762 10.6868 0
M  V30 207 H 15.0220 10.3622 10.7293 0
M  V30 208 H 13.9190 10.1114 9.2806 0
M  V30 209 H 11.3588 12.3891 8.4523 0
M  V30 210 H 12.6647 11.2277 8.4274 0
M  V30 211 C 10.5348 -10.4200 13.7770 0
M  V30 212 C 11.3784 -11.0850 12.7441 0
M  V30 213 C 11.2205 -12.4500 12.6183 0
M  V30 214 C 10.2747 -13.2313 13.4628 0
M  V30 215 N 8.9019 -13.0426 13.0426 0
M  V30 216 C 11.9682 -13.1586 11.6685 0
M  V30 217 C 11.7826 -14.6385 11.5611 0
M  V30 218 C 12.8378 -12.4315 10.8975 0
M  V30 219 C 13.6411 -13.1357 9.8646 0
M  V30 220 N 12.8980 -13.4286 8.6605 0
M  V30 221 C 13.0063 -11.0529 11.0156 0
M  V30 222 C 13.9727 -10.3598 10.1470 0
M  V30 223 C 12.2645 -10.3656 11.9548 0
M  V30 224 C 12.3791 -8.9152 12.1765 0
M  V30 225 N 13.1872 -8.5159 13.2840 0
M  V30 226 H 11.1589 -10.2823 14.6738 0
M  V30 227 H 10.0728 -9.4979 13.3822 0
M  V30 228 H 9.6935 -11.0832 14.1002 0
M  V30 229 H 10.4751 -14.3076 13.3859 0
M  V30 230 H 10.4086 -12.9070 14.5007 0
M  V30 231 H 12.4290 -15.0944 10.8282 0
M  V30 232 H 10.7107 -14.9041 11.4544 0
M  V30 233 H 12.1047 -15.1055 12.5462 0
M  V30 234 H 14.4989 -12.4844 9.5728 0
M  V30 235 H 14.0186 -14.1146 10.2453 0
M  V30 236 H 13.7958 -10.6868 9.0762 0
M  V30 237 H 15.0220 -10.7293 10.3622 0
M  V30 238 H 13.9190 -9.2806 10.1114 0
M  V30 239 H 11.3588 -8.4523 12.3891 0
M  V30 240 H 12.6647 -8.4274 11.2277 0
M  V30 241 C -1.4425 16.3478 -16.4645 0
M  V30 242 C -0.0194 16.0220 -16.1267 0
M  V30 243 C 0.6814 17.2695 -15.5971 0
M  V30 244 C 0.6841 15.6384 -17.3991 0
M  V30 245 C 0.0373 15.0089 -15.0780 0
M  V30 246 C -1.1441 14.5183 -14.5702 0
M  V30 247 C -1.1808 13.5499 -13.5678 0
M  V30 248 C -2.4385 13.0426 -13.0426 0
M  V30 249 C 0.0122 13.0762 -13.0774 0
M  V30 250 O -0.0207 12.1164 -12.0839 0
M  V30 251 C 1.2044 13.5658 -13.5842 0
M  V30 252 C 2.4385 13.0426 -13.0426 0
M  V30 253 C 1.2246 14.5151 -14.5669 0
M  V30 254 H -2.0321 16.7304 -15.5900 0
M  V30 255 H -1.4817 17.1064 -17.3022 0
M  V30 256 H -1.9828 15.4461 -16.8180 0
M  V30 257 H 0.0566 17.6742 -14.7802 0
M  V30 258 H 0.8759 17.9920 -16.3954 0
M  V30 259 H 1.6501 16.9648 -15.1239 0
M  V30 260 H 0.4508 14.6005 -17.7261 0
M  V30 261 H 1.7746 15.8409 -17.3686 0
M  V30 262 H 0.2751 16.3006 -18.1969 0
M  V30 263 H -2.1244 14.8393 -14.9024 0
M  V30 264 H -3.3717 13.4102 -13.4232 0
M  V30 265 H -0.2954 12.4103 -11.1617 0
M  V30 266 H 2.4242 12.3024 -12.2763 0
M  V30 267 H 2.1295 14.9265 -14.9927 0
M  V30 268 C -16.3586 1.3218 -16.5753 0
M  V30 269 C -16.0240 -0.1013 -16.2461 0
M  V30 270 C -15.4818 -0.8021 -17.4882 0
M  V30 271 C -17.3003 -0.8048 -15.8754 0
M  V30 272 C -14.9857 -0.1580 -15.2224 0
M  V30 273 C -14.4829 1.0234 -14.7267 0
M  V30 274 C -13.4903 1.0601 -13.7482 0
M  V30 275 C -12.9703 2.3178 -13.2356 0
M  V30 276 C -13.0048 -0.1329 -13.2696 0
M  V30 277 O -12.0210 -0.1000 -12.2998 0
M  V30 278 C -13.5066 -1.3251 -13.7642 0
M  V30 279 C -12.9703 -2.5592 -13.2356 0
M  V30 280 C -14.4796 -1.3453 -14.7235 0
M  V30 281 H -15.4802 1.9114 -16.9490 0
M  V30 282 H -17.1885 1.3610 -17.3423 0
M  V30 283 H -16.7212 1.8621 -15.6772 0
M  V30 284 H -14.6610 -0.1773 -17.8846 0
M  V30 285 H -16.2728 -0.9966 -18.2187 0
M  V30 286 H -15.0118 -1.7708 -17.1787 0
M  V30 287 H -17.6378 -0.5715 -14.8409 0
M  V30 288 H -17.2678 -1.8953 -16.0776 0
M  V30 289 H -18.0913 -0.3958 -16.5456 0
M  V30 290 H -14.8118 2.0037 -15.0511 0
M  V30 291 H -13.3471 3.2510 -13.6071 0
M  V30 292 H -11.0959 0.1747 -12.5843 0
M  V30 293 H -12.2116 -2.5449 -12.4877 0
M  V30 294 H -14.9012 -2.2502 -15.1392 0
M  V30 295 C -1.3218 -16.3586 -16.5753 0
M  V30 296 C 0.1013 -16.0240 -16.2461 0
M  V30 297 C 0.8021 -15.4818 -17.4882 0
M  V30 298 C 0.8048 -17.3003 -15.8754 0
M  V30 299 C 0.1580 -14.9857 -15.2224 0
M  V30 300 C -1.0234 -14.4829 -14.7267 0
M  V30 301 C -1.0601 -13.4903 -13.7482 0
M  V30 302 C -2.3178 -12.9703 -13.2356 0
M  V30 303 C 0.1329 -13.0048 -13.2696 0
M  V30 304 O 0.1000 -12.0210 -12.2998 0
M  V30 305 C 1.3251 -13.5066 -13.7642 0
M  V30 306 C 2.5592 -12.9703 -13.2356 0
M  V30 307 C 1.3453 -14.4796 -14.7235 0
M  V30 308 H -1.9114 -15.4802 -16.9490 0
M  V30 309 H -1.3610 -17.1885 -17.3423 0
M  V30 310 H -1.8621 -16.7212 -15.6772 0
M  V30 311 H 0.1773 -14.6610 -17.8846 0
M  V30 312 H 0.9966 -16.2728 -18.2187 0
M  V30 313 H 1.7708 -15.0118 -17.1787 0
M  V30 314 H 0.5715 -17.6378 -14.8409 0
M  V30 315 H 1.8953 -17.2678 -16.0776 0
M  V30 316 H 0.3958 -18.0913 -16.5456 0
M  V30 317 H -2.0037 -14.8118 -15.0511 0
M  V30 318 H -3.2510 -13.3471 -13.6071 0
M  V30 319 H -0.1747 -11.0959 -12.5843 0
M  V30 320 H 2.5449 -12.2116 -12.4877 0
M  V30 321 H 2.2502 -14.9012 -15.1392 0
M  V30 322 C 16.3069 1.3702 -16.8173 0
M  V30 323 C 15.9852 -0.0529 -16.4756 0
M  V30 324 C 17.2389 -0.7537 -15.9608 0
M  V30 325 C 15.5865 -0.7564 -17.7433 0
M  V30 326 C 14.9846 -0.1096 -15.4149 0
M  V30 327 C 14.5001 1.0718 -14.9013 0
M  V30 328 C 13.5436 1.1085 -13.8875 0
M  V30 329 C 13.0426 2.3662 -13.3563 0
M  V30 330 C 13.0758 -0.0845 -13.3915 0
M  V30 331 O 12.1279 -0.0516 -12.3867 0
M  V30 332 C 13.5593 -1.2767 -13.9041 0
M  V30 333 C 13.0426 -2.5108 -13.3563 0
M  V30 334 C 14.4969 -1.2969 -14.8980 0
M  V30 335 H 16.6998 1.9598 -15.9473 0
M  V30 336 H 17.0555 1.4094 -17.6639 0
M  V30 337 H 15.4011 1.9105 -17.1600 0
M  V30 338 H 17.6533 -0.1289 -15.1489 0
M  V30 339 H 17.9518 -0.9482 -16.7677 0
M  V30 340 H 16.9398 -1.7224 -15.4841 0
M  V30 341 H 14.5448 -0.5231 -18.0580 0
M  V30 342 H 15.7893 -1.8469 -17.7153 0
M  V30 343 H 16.2391 -0.3474 -18.5489 0
M  V30 344 H 14.8171 2.0521 -15.2373 0
M  V30 345 H 13.4057 3.2994 -13.7412 0
M  V30 346 H 12.4327 0.2231 -11.4680 0
M  V30 347 H 12.3116 -2.4965 -12.5813 0
M  V30 348 H 14.9032 -2.2018 -15.3287 0
M  V30 349 C -1.4425 16.4645 16.3478 0
M  V30 350 C -0.0194 16.1267 16.0220 0
M  V30 351 C 0.6814 15.5971 17.2695 0
M  V30 352 C 0.6841 17.3991 15.6384 0
M  V30 353 C 0.0373 15.0780 15.0089 0
M  V30 354 C -1.1441 14.5702 14.5183 0
M  V30 355 C -1.1808 13.5678 13.5499 0
M  V30 356 C -2.4385 13.0426 13.0426 0
M  V30 357 C 0.0122 13.0774 13.0762 0
M  V30 358 O -0.0207 12.0839 12.1164 0
M  V30 359 C 1.2044 13.5842 13.5658 0
M  V30 360 C 2.4385 13.0426 13.0426 0
M  V30 361 C 1.2246 14.5669 14.5151 0
M  V30 362 H -2.0321 15.5900 16.7304 0
M  V30 363 H -1.4817 17.3022 17.1064 0
M  V30 364 H -1.9828 16.8180 15.4461 0
M  V30 365 H 0.0566 14.7802 17.6742 0
M  V30 366 H 0.8759 16.3954 17.9920 0
M  V30 367 H 1.6501 15.1239 16.9648 0
M  V30 368 H 0.4508 17.7261 14.6005 0
M  V30 369 H 1.7746 17.3686 15.8409 0
M  V30 370 H 0.2751 18.1969 16.3006 0
M  V30 371 H -2.1244 14.9024 14.8393 0
M  V30 372 H -3.3717 13.4232 13.4102 0
M  V30 373 H -0.2954 11.1617 12.4103 0
M  V30 374 H 2.4242 12.2763 12.3024 0
M  V30 375 H 2.1295 14.9927 14.9265 0
M  V30 376 C -16.4138 1.2495 16.5913 0
M  V30 377 C -16.0886 -0.1736 16.2528 0
M  V30 378 C -17.3371 -0.8744 15.7255 0
M  V30 379 C -15.7027 -0.8771 17.5245 0
M  V30 380 C -15.0774 -0.2303 15.2023 0
M  V30 381 C -14.5878 0.9511 14.6936 0
M  V30 382 C -13.6213 0.9878 13.6894 0
M  V30 383 C -13.1149 2.2455 13.1633 0
M  V30 384 C -13.1485 -0.2052 13.1982 0
M  V30 385 O -12.1905 -0.1723 12.2029 0
M  V30 386 C -13.6371 -1.3974 13.7059 0
M  V30 387 C -13.1149 -2.6315 13.1633 0
M  V30 388 C -14.5846 -1.4176 14.6903 0
M  V30 389 H -16.7980 1.8391 15.7174 0
M  V30 390 H -17.1709 1.2887 17.4303 0
M  V30 391 H -15.5114 1.7898 16.9431 0
M  V30 392 H -17.7433 -0.2496 14.9095 0
M  V30 393 H -18.0582 -1.0689 16.5252 0
M  V30 394 H -17.0333 -1.8431 15.2518 0
M  V30 395 H -14.6642 -0.6438 17.8497 0
M  V30 396 H -15.9052 -1.9676 17.4945 0
M  V30 397 H -16.3634 -0.4681 18.3236 0
M  V30 398 H -14.9082 1.9314 15.0264 0
M  V30 399 H -13.4819 3.1787 13.5445 0
M  V30 400 H -12.4861 0.1024 11.2812 0
M  V30 401 H -12.3761 -2.6172 12.3957 0
M  V30 402 H -14.9952 -2.3225 15.1169 0
M  V30 403 C -1.2495 -16.4138 16.5913 0
M  V30 404 C 0.1736 -16.0886 16.2528 0
M  V30 405 C 0.8744 -17.3371 15.7255 0
M  V30 406 C 0.8771 -15.7027 17.5245 0
M  V30 407 C 0.2303 -15.0774 15.2023 0
M  V30 408 C -0.9511 -14.5878 14.6936 0
M  V30 409 C -0.9878 -13.6213 13.6894 0
M  V30 410 C -2.2455 -13.1149 13.1633 0
M  V30 411 C 0.2052 -13.1485 13.1982 0
M  V30 412 O 0.1723 -12.1905 12.2029 0
M  V30 413 C 1.3974 -13.6371 13.7059 0
M  V30 414 C 2.6315 -13.1149 13.1633 0
M  V30 415 C 1.4176 -14.5846 14.6903 0
M  V30 416 H -1.8391 -16.7980 15.7174 0
M  V30 417 H -1.2887 -17.1709 17.4303 0
M  V30 418 H -1.7898 -15.5114 16.9431 0
M  V30 419 H 0.2496 -17.7433 14.9095 0
M  V30 420 H 1.0689 -18.0582 16.5252 0
M  V30 421 H 1.8431 -17.0333 15.2518 0
M  V30 422 H 0.6438 -14.6642 17.8497 0
M  V30 423 H 1.9676 -15.9052 17.4945 0
M  V30 424 H 0.4681 -16.3634 18.3236 0
M  V30 425 H -1.9314 -14.9082 15.0264 0
M  V30 426 H -3.1787 -13.4819 13.5445 0
M  V30 427 H -0.1024 -12.4861 11.2812 0
M  V30 428 H 2.6172 -12.3761 12.3957 0
M  V30 429 H 2.3225 -14.9952 15.1169 0
M  V30 430 C 16.4250 1.5149 16.7019 0
M  V30 431 C 16.0910 0.0918 16.3722 0
M  V30 432 C 15.5466 -0.6091 17.6133 0
M  V30 433 C 17.3679 -0.6118 16.0037 0
M  V30 434 C 15.0545 0.0350 15.3466 0
M  V30 435 C 14.5525 1.2164 14.8501 0
M  V30 436 C 13.5617 1.2531 13.8698 0
M  V30 437 C 13.0426 2.5108 13.3563 0
M  V30 438 C 13.0770 0.0601 13.3904 0
M  V30 439 O 12.0950 0.0930 12.4188 0
M  V30 440 C 13.5779 -1.1321 13.8859 0
M  V30 441 C 13.0426 -2.3662 13.3563 0
M  V30 442 C 14.5493 -1.1523 14.8468 0
M  V30 443 H 15.5460 2.1044 17.0741 0
M  V30 444 H 17.2536 1.5540 17.4704 0
M  V30 445 H 16.7892 2.0551 15.8045 0
M  V30 446 H 14.7251 0.0157 18.0083 0
M  V30 447 H 16.3363 -0.8036 18.3452 0
M  V30 448 H 15.0772 -1.5778 17.3030 0
M  V30 449 H 17.7073 -0.3785 14.9698 0
M  V30 450 H 17.3351 -1.7023 16.2058 0
M  V30 451 H 18.1578 -0.2027 16.6753 0
M  V30 452 H 14.8809 2.1967 15.1750 0
M  V30 453 H 13.4188 3.4440 13.7285 0
M  V30 454 H 11.1693 0.3677 12.7017 0
M  V30 455 H 12.2852 -2.3519 12.6071 0
M  V30 456 H 14.9702 -2.0572 15.2632 0
M  V30 457 C -16.3069 16.8173 -1.3702 0
M  V30 458 C -15.9852 16.4756 0.0529 0
M  V30 459 C -17.2389 15.9608 0.7537 0
M  V30 460 C -15.5865 17.7433 0.7564 0
M  V30 461 C -14.9846 15.4149 0.1096 0
M  V30 462 C -14.5001 14.9013 -1.0718 0
M  V30 463 C -13.5436 13.8875 -1.1085 0
M  V30 464 C -13.0426 13.3563 -2.3662 0
M  V30 465 C -13.0758 13.3915 0.0845 0
M  V30 466 O -12.1279 12.3867 0.0516 0
M  V30 467 C -13.5593 13.9041 1.2767 0
M  V30 468 C -13.0426 13.3563 2.5108 0
M  V30 469 C -14.4969 14.8980 1.2969 0
M  V30 470 H -16.6998 15.9473 -1.9598 0
M  V30 471 H -17.0555 17.6639 -1.4094 0
M  V30 472 H -15.4011 17.1600 -1.9105 0
M  V30 473 H -17.6533 15.1489 0.1289 0
M  V30 474 H -17.9518 16.7677 0.9482 0
M  V30 475 H -16.9398 15.4841 1.7224 0
M  V30 476 H -14.5448 18.0580 0.5231 0
M  V30 477 H -15.7893 17.7153 1.8469 0
M  V30 478 H -16.2391 18.5489 0.3474 0
M  V30 479 H -14.8171 15.2373 -2.0521 0
M  V30 480 H -13.4057 13.7412 -3.2994 0
M  V30 481 H -12.4327 11.4680 -0.2231 0
M  V30 482 H -12.3116 12.5813 2.4965 0
M  V30 483 H -14.9032 15.3287 2.2018 0
M  V30 484 C -16.8173 -16.3069 -1.3702 0
M  V30 485 C -16.4756 -15.9852 0.0529 0
M  V30 486 C -15.9608 -17.2389 0.7537 0
M  V30 487 C -17.7433 -15.5865 0.7564 0
M  V30 488 C -15.4149 -14.9846 0.1096 0
M  V30 489 C -14.9013 -14.5001 -1.0718 0
M  V30 490 C -13.8875 -13.5436 -1.1085 0
M  V30 491 C -13.3563 -13.0426 -2.3662 0
M  V30 492 C -13.3915 -13.0758 0.0845 0
M  V30 493 O -12.3867 -12.1279 0.0516 0
M  V30 494 C -13.9041 -13.5593 1.2767 0
M  V30 495 C -13.3563 -13.0426 2.5108 0
M  V30 496 C -14.8980 -14.4969 1.2969 0
M  V30 497 H -15.9473 -16.6998 -1.9598 0
M  V30 498 H -17.6639 -17.0555 -1.4094 0
M  V30 499 H -17.1600 -15.4011 -1.9105 0
M  V30 500 H -15.1489 -17.6533 0.1289 0
M  V30 501 H -16.7677 -17.9518 0.9482 0
M  V30 502 H -15.4841 -16.9398 1.7224 0
M  V30 503 H -18.0580 -14.5448 0.5231 0
M  V30 504 H -17.7153 -15.7893 1.8469 0
M  V30 505 H -18.5489 -16.2391 0.3474 0
M  V30 506 H -15.2373 -14.8171 -2.0521 0
M  V30 507 H -13.7412 -13.4057 -3.2994 0
M  V30 508 H -11.4680 -12.4327 -0.2231 0
M  V30 509 H -12.5813 -12.3116 2.4965 0
M  V30 510 H -15.3287 -14.9032 2.2018 0
M  V30 511 C 16.4250 16.7019 -1.5149 0
M  V30 512 C 16.0910 16.3722 -0.0918 0
M  V30 513 C 15.5466 17.6133 0.6091 0
M  V30 514 C 17.3679 16.0037 0.6118 0
M  V30 515 C 15.0545 15.3466 -0.0350 0
M  V30 516 C 14.5525 14.8501 -1.2164 0
M  V30 517 C 13.5617 13.8698 -1.2531 0
M  V30 518 C 13.0426 13.3563 -2.5108 0
M  V30 519 C 13.0770 13.3904 -0.0601 0
M  V30 520 O 12.0950 12.4188 -0.0930 0
M  V30 521 C 13.5779 13.8859 1.1321 0
M  V30 522 C 13.0426 13.3563 2.3662 0
M  V30 523 C 14.5493 14.8468 1.1523 0
M  V30 524 H 15.5460 17.0741 -2.1044 0
M  V30 525 H 17.2536 17.4704 -1.5540 0
M  V30 526 H 16.7892 15.8045 -2.0551 0
M  V30 527 H 14.7251 18.0083 -0.0157 0
M  V30 528 H 16.3363 18.3452 0.8036 0
M  V30 529 H 15.0772 17.3030 1.5778 0
M  V30 530 H 17.7073 14.9698 0.3785 0
M  V30 531 H 17.3351 16.2058 1.7023 0
M  V30 532 H 18.1578 16.6753 0.2027 0
M  V30 533 H 14.8809 15.1750 -2.1967 0
M  V30 534 H 13.4188 13.7285 -3.4440 0
M  V30 535 H 11.1693 12.7017 -0.3677 0
M  V30 536 H 12.2852 12.6071 2.3519 0
M  V30 537 H 14.9702 15.2632 2.0572 0
M  V30 538 C 16.3069 -16.8173 -1.3702 0
M  V30 539 C 15.9852 -16.4756 0.0529 0
M  V30 540 C 17.2389 -15.9608 0.7537 0
M  V30 541 C 15.5865 -17.7433 0.7564 0
M  V30 542 C 14.9846 -15.4149 0.1096 0
M  V30 543 C 14.5001 -14.9013 -1.0718 0
M  V30 544 C 13.5436 -13.8875 -1.1085 0
M  V30 545 C 13.0426 -13.3563 -2.3662 0
M  V30 546 C 13.0758 -13.3915 0.0845 0
M  V30 547 O 12.1279 -12.3867 0.0516 0
M  V30 548 C 13.5593 -13.9041 1.2767 0
M  V30 549 C 13.0426 -13.3563 2.5108 0
M  V30 550 C 14.4969 -14.8980 1.2969 0
M  V30 551 H 16.6998 -15.9473 -1.9598 0
M  V30 552 H 17.0555 -17.6639 -1.4094 0
M  V30 553 H 15.4011 -17.1600 -1.9105 0
M  V30 554 H 17.6533 -15.1489 0.1289 0
M  V30 555 H 17.9518 -16.7677 0.9482 0
M  V30 556 H 16.9398 -15.4841 1.7224 0
M  V30 557 H 14.5448 -18.0580 0.5231 0
M  V30 558 H 15.7893 -17.7153 1.8469 0
M  V30 559 H 16.2391 -18.5489 0.3474 0
M  V30 560 H 14.8171 -15.2373 -2.0521 0
M  V30 561 H 13.4057 -13.7412 -3.2994 0
M  V30 562 H 12.4327 -11.4680 -0.2231 0
M  V30 563 H 12.3116 -12.5813 2.4965 0
M  V30 564 H 14.9032 -15.3287 2.2018 0
M  V30 END ATOM
M  V30 BEGIN BOND
M  V30 1 1 1 2
M  V30 2 2 2 3
M  V30 3 1 3 4
M  V30 4 1 4 5
M  V30 5 1 3 6
M  V30 6 1 6 7
M  V30 7 2 6 8
M  V30 8 1 8 9
M  V30 9 1 9 10
M  V30 10 1 8 11
M  V30 11 1 11 12
M  V30 12 2 11 13
M  V30 13 1 13 14
M  V30 14 1 14 15
M  V30 15 1 13 2
M  V30 16 1 1 16
M  V30 17 1 1 17
M  V30 18 1 1 18
M  V30 19 1 4 19
M  V30 20 1 4 20
M  V30 21 1 7 21
M  V30 22 1 7 22
M  V30 23 1 7 23
M  V30 24 1 9 24
M  V30 25 1 9 25
M  V30 26 1 12 26
M  V30 27 1 12 27
M  V30 28 1 12 28
M  V30 29 1 14 29
M  V30 30 1 14 30
M  V30 31 1 31 32
M  V30 32 2 32 33
M  V30 33 1 33 34
M  V30 34 1 34 35
M  V30 35 1 33 36
M  V30 36 1 36 37
M  V30 37 2 36 38
M  V30 38 1 38 39
M  V30 39 1 39 40
M  V30 40 1 38 41
M  V30 41 1 41 42
M  V30 42 2 41 43
M  V30 43 1 43 44
M  V30 44 1 44 45
M  V30 45 1 43 32
M  V30 46 1 31 46
M  V30 47 1 31 47
M  V30 48 1 31 48
M  V30 49 1 34 49
M  V30 50 1 34 50
M  V30 51 1 37 51
M  V30 52 1 37 52
M  V30 53 1 37 53
M  V30 54 1 39 54
M  V30 55 1 39 55
M  V30 56 1 42 56
M  V30 57 1 42 57
M  V30 58 1 42 58
M  V30 59 1 44 59
M  V30 60 1 44 60
M  V30 61 1 61 62
M  V30 62 2 62 63
M  V30 63 1 63 64
M  V30 64 1 64 65
M  V30 65 1 63 66
M  V30 66 1 66 67
M  V30 67 2 66 68
M  V30 68 1 68 69
M  V30 69 1 69 70
M  V30 70 1 68 71
M  V30 71 1 71 72
M  V30 72 2 71 73
M  V30 73 1 73 74
M  V30 74 1 74 75
M  V30 75 1 73 62
M  V30 76 1 61 76
M  V30 77 1 61 77
M  V30 78 1 61 78
M  V30 79 1 64 79
M  V30 80 1 64 80
M  V30 81 1 67 81
M  V30 82 1 67 82
M  V30 83 1 67 83
M  V30 84 1 69 84
M  V30 85 1 69 85
M  V30 86 1 72 86
M  V30 87 1 72 87
M  V30 88 1 72 88
M  V30 89 1 74 89
M  V30 90 1 74 90
M  V30 91 1 91 92
M  V30 92 2 92 93
M  V30 93 1 93 94
M  V30 94 1 94 95
M  V30 95 1 93 96
M  V30 96 1 96 97
M  V30 97 2 96 98
M  V30 98 1 98 99
M  V30 99 1 99 100
M  V30 100 1 98 101
M  V30 101 1 101 102
M  V30 102 2 101 103
M  V30 103 1 103 104
M  V30 104 1 104 105
M  V30 105 1 103 92
M  V30 106 1 91 106
M  V30 107 1 91 107
M  V30 108 1 91 108
M  V30 109 1 94 109
M  V30 110 1 94 110
M  V30 111 1 97 111
M  V30 112 1 97 112
M  V30 113 1 97 113
M  V30 114 1 99 114
M  V30 115 1 99 115
M  V30 116 1 102 116
M  V30 117 1 102 117
M  V30 118 1 102 118
M  V30 119 1 104 119
M  V30 120 1 104 120
M  V30 121 1 121 122
M  V30 122 2 122 123
M  V30 123 1 123 124
M  V30 124 1 124 125
M  V30 125 1 123 126
M  V30 126 1 126 127
M  V30 127 2 126 128
M  V30 128 1 128 129
M  V30 129 1 129 130
M  V30 130 1 128 131
M  V30 131 1 131 132
M  V30 132 2 131 133
M  V30 133 1 133 134
M  V30 134 1 134 135
M  V30 135 1 133 122
M  V30 136 1 121 136
M  V30 137 1 121 137
M  V30 138 1 121 138
M  V30 139 1 124 139
M  V30 140 1 124 140
M  V30 141 1 127 141
M  V30 142 1 127 142
M  V30 143 1 127 143
M  V30 144 1 129 144
M  V30 145 1 129 145
M  V30 146 1 132 146
M  V30 147 1 132 147
M  V30 148 1 132 148
M  V30 149 1 134 149
M  V30 150 1 134 150
M  V30 151 1 151 152
M  V30 152 2 152 153
M  V30 153 1 153 154
M  V30 154 1 154 155
M  V30 155 1 153 156
M  V30 156 1 156 157
M  V30 157 2 156 158
M  V30 158 1 158 159
M  V30 159 1 159 160
M  V30 160 1 158 161
M  V30 161 1 161 162
M  V30 162 2 161 163
M  V30 163 1 163 164
M  V30 164 1 164 165
M  V30 165 1 163 152
M  V30 166 1 151 166
M  V30 167 1 151 167
M  V30 168 1 151 168
M  V30 169 1 154 169
M  V30 170 1 154 170
M  V30 171 1 157 171
M  V30 172 1 157 172
M  V30 173 1 157 173
M  V30 174 1 159 174
M  V30 175 1 159 175
M  V30 176 1 162 176
M  V30 177 1 162 177
M  V30 178 1 162 178
M  V30 179 1 164 179
M  V30 180 1 164 180
M  V30 181 1 181 182
M  V30 182 2 182 183
M  V30 183 1 183 184
M  V30 184 1 184 185
M  V30 185 1 183 186
M  V30 186 1 186 187
M  V30 187 2 186 188
M  V30 188 1 188 189
M  V30 189 1 189 190
M  V30 190 1 188 191
M  V30 191 1 191 192
M  V30 192 2 191 193
M  V30 193 1 193 194
M  V30 194 1 194 195
M  V30 195 1 193 182
M  V30 196 1 181 196
M  V30 197 1 181 197
M  V30 198 1 181 198
M  V30 199 1 184 199
M  V30 200 1 184 200
M  V30 201 1 187 201
M  V30 202 1 187 202
M  V30 203 1 187 203
M  V30 204 1 189 204
M  V30 205 1 189 205
M  V30 206 1 192 206
M  V30 207 1 192 207
M  V30 208 1 192 208
M  V30 209 1 194 209
M  V30 210 1 194 210
M  V30 211 1 211 212
M  V30 212 2 212 213
M  V30 213 1 213 214
M  V30 214 1 214 215
M  V30 215 1 213 216
M  V30 216 1 216 217
M  V30 217 2 216 218
M  V30 218 1 218 219
M  V30 219 1 219 220
M  V30 220 1 218 221
M  V30 221 1 221 222
M  V30 222 2 221 223
M  V30 223 1 223 224
M  V30 224 1 224 225
M  V30 225 1 223 212
M  V30 226 1 211 226
M  V30 227 1 211 227
M  V30 228 1 211 228
M  V30 229 1 214 229
M  V30 230 1 214 230
M  V30 231 1 217 231
M  V30 232 1 217 232
M  V30 233 1 217 233
M  V30 234 1 219 234
M  V30 235 1 219 235
M  V30 236 1 222 236
M  V30 237 1 222 237
M  V30 238 1 222 238
M  V30 239 1 224 239
M  V30 240 1 224 240
M  V30 241 1 241 242
M  V30 242 1 242 243
M  V30 243 1 242 244
M  V30 244 1 242 245
M  V30 245 2 245 246
M  V30 246 1 246 247
M  V30 247 1 247 248
M  V30 248 2 247 249
M  V30 249 1 249 250
M  V30 250 1 249 251
M  V30 251 1 251 252
M  V30 252 2 251 253
M  V30 253 1 253 245
M  V30 254 1 241 254
M  V30 255 1 241 255
M  V30 256 1 241 256
M  V30 257 1 243 257
M  V30 258 1 243 258
M  V30 259 1 243 259
M  V30 260 1 244 260
M  V30 261 1 244 261
M  V30 262 1 244 262
M  V30 263 1 246 263
M  V30 264 1 248 264
M  V30 265 1 250 265
M  V30 266 1 252 266
M  V30 267 1 253 267
M  V30 268 1 268 269
M  V30 269 1 269 270
M  V30 270 1 269 271
M  V30 271 1 269 272
M  V30 272 2 272 273
M  V30 273 1 273 274
M  V30 274 1 274 275
M  V30 275 2 274 276
M  V30 276 1 276 277
M  V30 277 1 276 278
M  V30 278 1 278 279
M  V30 279 2 278 280
M  V30 280 1 280 272
M  V30 281 1 268 281
M  V30 282 1 268 282
M  V30 283 1 268 283
M  V30 284 1 270 284
M  V30 285 1 270 285
M  V30 286 1 270 286
M  V30 287 1 271 287
M  V30 288 1 271 288
M  V30 289 1 271 289
M  V30 290 1 273 290
M  V30 291 1 275 291
M  V30 292 1 277 292
M  V30 293 1 279 293
M  V30 294 1 280 294
M  V30 295 1 295 296
M  V30 296 1 296 297
M  V30 297 1 296 298
M  V30 298 1 296 299
M  V30 299 2 299 300
M  V30 300 1 300 301
M  V30 301 1 301 302
M  V30 302 2 301 303
M  V30 303 1 303 304
M  V30 304 1 303 305
M  V30 305 1 305 306
M  V30 306 2 305 307
M  V30 307 1 307 299
M  V30 308 1 295 308
M  V30 309 1 295 309
M  V30 310 1 295 310
M  V30 311 1 297 311
M  V30 312 1 297 312
M  V30 313 1 297 313
M  V30 314 1 298 314
M  V30 315 1 298 315
M  V30 316 1 298 316
M  V30 317 1 300 317
M  V30 318 1 302 318
M  V30 319 1 304 319
M  V30 320 1 306 320
M  V30 321 1 307 321
M  V30 322 1 322 323
M  V30 323 1 323 324
M  V30 324 1 323 325
M  V30 325 1 323 326
M  V30 326 2 326 327
M  V30 327 1 327 328
M  V30 328 1 328 329
M  V30 329 2 328 330
M  V30 330 1 330 331
M  V30 331 1 330 332
M  V30 332 1 332 333
M  V30 333 2 332 334
M  V30 334 1 334 326
M  V30 335 1 322 335
M  V30 336 1 322 336
M  V30 337 1 322 337
M  V30 338 1 324 338
M  V30 339 1 324 339
M  V30 340 1 324 340
M  V30 341 1 325 341
M  V30 342 1 325 342
M  V30 343 1 325 343
M  V30 344 1 327 344
M  V30 345 1 329 345
M  V30 346 1 331 346
M  V30 347 1 333 347
M  V30 348 1 334 348
M  V30 349 1 349 350
M  V30 350 1 350 351
M  V30 351 1 350 352
M  V30 352 1 350 353
M  V30 353 2 353 354
M  V30 354 1 354 355
M  V30 355 1 355 356
M  V30 356 2 355 357
M  V30 357 1 357 358
M  V30 358 1 357 359
M  V30 359 1 359 360
M  V30 360 2 359 361
M  V30 361 1 361 353
M  V30 362 1 349 362
M  V30 363 1 349 363
M  V30 364 1 349 364
M  V30 365 1 351 365
M  V30 366 1 351 366
M  V30 367 1 351 367
M  V30 368 1 352 368
M  V30 369 1 352 369
M  V30 370 1 352 370
M  V30 371 1 354 371
M  V30 372 1 356 372
M  V30 373 1 358 373
M  V30 374 1 360 374
M  V30 375 1 361 375
M  V30 376 1 376 377
M  V30 377 1 377 378
M  V30 378 1 377 379
M  V30 379 1 377 380
M  V30 380 2 380 381
M  V30 381 1 381 382
M  V30 382 1 382 383
M  V30 383 2 382 384
M  V30 384 1 384 385
M  V30 385 1 384 386
M  V30 386 1 386 387
M  V30 387 2 386 388
M  V30 388 1 388 380
M  V30 389 1 376 389
M  V30 390 1 376 390
M  V30 391 1 376 391
M  V30 392 1 378 392
M  V30 393 1 378 393
M  V30 394 1 378 394
M  V30 395 1 379 395
M  V30 396 1 379 396
M  V30 397 1 379 397
M  V30 398 1 381 398
M  V30 399 1 383 399
M  V30 400 1 385 400
M  V30 401 1 387 401
M  V30 402 1 388 402
M  V30 403 1 403 404
M  V30 404 1 404 405
M  V30 405 1 404 406
M  V30 406 1 404 407
M  V30 407 2 407 408
M  V30 408 1 408 409
M  V30 409 1 409 410
M  V30 410 2 409 411
M  V30 411 1 411 412
M  V30 412 1 411 413
M  V30 413 1 413 414
M  V30 414 2 413 415
M  V30 415 1 415 407
M  V30 416 1 403 416
M  V30 417 1 403 417
M  V30 418 1 403 418
M  V30 419 1 405 419
M  V30 420 1 405 420
M  V30 421 1 405 421
M  V30 422 1 406 422
M  V30 423 1 406 423
M  V30 424 1 406 424
M  V30 425 1 408 425
M  V30 426 1 410 426
M  V30 427 1 412 427
M  V30 428 1 414 428
M  V30 429 1 415 429
M  V30 430 1 430 431
M  V30 431 1 431 432
M  V30 432 1 431 433
M  V30 433 1 431 434
M  V30 434 2 434 435
M  V30 435 1 435 436
M  V30 436 1 436 437
M  V30 437 2 436 438
M  V30 438 1 438 439
M  V30 439 1 438 440
M  V30 440 1 440 441
M  V30 441 2 440 442
M  V30 442 1 442 434
M  V30 443 1 430 443
M  V30 444 1 430 444
M  V30 445 1 430 445
M  V30 446 1 432 446
M  V30 447 1 432 447
M  V30 448 1 432 448
M  V30 449 1 433 449
M  V30 450 1 433 450
M  V30 451 1 433 451
M  V30 452 1 435 452
M  V30 453 1 437 453
M  V30 454 1 439 454
M  V30 455 1 441 455
M  V30 456 1 442 456
M  V30 457 1 457 458
M  V30 458 1 458 459
M  V30 459 1 458 460
M  V30 460 1 458 461
M  V30 461 2 461 462
M  V30 462 1 462 463
M  V30 463 1 463 464
M  V30 464 2 463 465
M  V30 465 1 465 466
M  V30 466 1 465 467
M  V30 467 1 467 468
M  V30 468 2 467 469
M  V30 469 1 469 461
M  V30 470 1 457 470
M  V30 471 1 457 471
M  V30 472 1 457 472
M  V30 473 1 459 473
M  V30 474 1 459 474
M  V30 475 1 459 475
M  V30 476 1 460 476
M  V30 477 1 460 477
M  V30 478 1 460 478
M  V30 479 1 462 479
M  V30 480 1 464 480
M  V30 481 1 466 481
M  V30 482 1 468 482
M  V30 483 1 469 483
M  V30 484 1 484 485
M  V30 485 1 485 486
M  V30 486 1 485 487
M  V30 487 1 485 488
M  V30 488 2 488 489
M  V30 489 1 489 490
M  V30 490 1 490 491
M  V30 491 2 490 492
M  V30 492 1 492 493
M  V30 493 1 492 494
M  V30 494 1 494 495
M  V30 495 2 494 496
M  V30 496 1 496 488
M  V30 497 1 484 497
M  V30 498 1 484 498
M  V30 499 1 484 499
M  V30 500 1 486 500
M  V30 501 1 486 501
M  V30 502 1 486 502
M  V30 503 1 487 503
M  V30 504 1 487 504
M  V30 505 1 487 505
M  V30 506 1 489 506
M  V30 507 1 491 507
M  V30 508 1 493 508
M  V30 509 1 495 509
M  V30 510 1 496 510
M  V30 511 1 511 512
M  V30 512 1 512 513
M  V30 513 1 512 514
M  V30 514 1 512 515
M  V30 515 2 515 516
M  V30 516 1 516 517
M  V30 517 1 517 518
M  V30 518 2 517 519
M  V30 519 1 519 520
M  V30 520 1 519 521
M  V30 521 1 521 522
M  V30 522 2 521 523
M  V30 523 1 523 515
M  V30 524 1 511 524
M  V30 525 1 511 525
M  V30 526 1 511 526
M  V30 527 1 513 527
M  V30 528 1 513 528
M  V30 529 1 513 529
M  V30 530 1 514 530
M  V30 531 1 514 531
M  V30 532 1 514 532
M  V30 533 1 516 533
M  V30 534 1 518 534
M  V30 535 1 520 535
M  V30 536 1 522 536
M  V30 537 1 523 537
M  V30 538 1 538 539
M  V30 539 1 539 540
M  V30 540 1 539 541
M  V30 541 1 539 542
M  V30 542 2 542 543
M  V30 543 1 543 544
M  V30 544 1 544 545
M  V30 545 2 544 546
M  V30 546 1 546 547
M  V30 547 1 546 548
M  V30 548 1 548 549
M  V30 549 2 548 550
M  V30 550 1 550 542
M  V30 551 1 538 551
M  V30 552 1 538 552
M  V30 553 1 538 553
M  V30 554 1 540 554
M  V30 555 1 540 555
M  V30 556 1 540 556
M  V30 557 1 541 557
M  V30 558 1 541 558
M  V30 559 1 541 559
M  V30 560 1 543 560
M  V30 561 1 545 561
M  V30 562 1 547 562
M  V30 563 1 549 563
M  V30 564 1 550 564
M  V30 565 2 5 248
M  V30 566 2 65 252
M  V30 567 2 10 275
M  V30 568 2 35 279
M  V30 569 2 40 302
M  V30 570 2 95 306
M  V30 571 2 75 329
M  V30 572 2 100 333
M  V30 573 2 125 356
M  V30 574 2 185 360
M  V30 575 2 135 383
M  V30 576 2 155 387
M  V30 577 2 165 410
M  V30 578 2 215 414
M  V30 579 2 190 437
M  V30 580 2 225 441
M  V30 581 2 15 464
M  V30 582 2 130 468
M  V30 583 2 45 491
M  V30 584 2 160 495
M  V30 585 2 70 518
M  V30 586 2 195 522
M  V30 587 2 105 545
M  V30 588 2 220 549
M  V30 END BOND
M  V30 END CTAB
M  END

$$$$
