
     RDKit          3D

  0  0  0  0  0  0  0  0  0  0999 V3000
M  V30 BEGIN CTAB
M  V30 COUNTS 480 516 0 0 0
M  V30 BEGIN ATOM
M  V30 1 C -12.7065 16.9979 -13.5768 0
M  V30 2 C -12.3766 15.7911 -12.6868 0
M  V30 3 C -13.0729 14.5856 -13.1366 0
M  V30 4 C -12.5734 13.9217 -14.2647 0
M  V30 5 C -11.3469 14.4679 -14.9148 0
M  V30 6 N -10.1483 14.1511 -14.1511 0
M  V30 7 C -13.2292 12.8021 -14.7144 0
M  V30 8 C -12.7191 12.0823 -15.9184 0
M  V30 9 C -13.0904 12.7404 -17.2056 0
M  V30 10 C -14.3665 12.3508 -14.0476 0
M  V30 11 C -15.0532 11.1331 -14.5542 0
M  V30 12 N -14.3027 9.9653 -14.1825 0
M  V30 13 C -14.8655 13.0079 -12.9270 0
M  V30 14 C -16.0907 12.5005 -12.2366 0
M  V30 15 C -17.3616 12.8971 -12.9529 0
M  V30 16 C -14.1924 14.1457 -12.4766 0
M  V30 17 C -14.7306 14.8043 -11.2642 0
M  V30 18 N -13.9995 14.3341 -10.1169 0
M  V30 19 H -11.7734 17.5157 -13.8884 0
M  V30 20 H -13.3638 16.6793 -14.3960 0
M  V30 21 H -13.2816 17.7838 -13.0162 0
M  V30 22 H -11.2567 15.6415 -12.6684 0
M  V30 23 H -12.6197 16.1195 -11.6679 0
M  V30 24 H -11.4156 15.5304 -15.1742 0
M  V30 25 H -11.2157 13.9373 -15.9038 0
M  V30 26 H -13.1102 11.0504 -15.9258 0
M  V30 27 H -11.6008 11.9362 -15.8340 0
M  V30 28 H -13.7472 13.6232 -17.0584 0
M  V30 29 H -12.2692 13.0528 -17.8462 0
M  V30 30 H -13.7071 12.0375 -17.8434 0
M  V30 31 H -15.0942 11.2293 -15.6761 0
M  V30 32 H -16.1096 11.0735 -14.2452 0
M  V30 33 H -16.0432 11.3631 -12.2432 0
M  V30 34 H -16.0851 12.7423 -11.1578 0
M  V30 35 H -18.0122 12.0430 -13.2256 0
M  V30 36 H -17.1727 13.5066 -13.8692 0
M  V30 37 H -17.9893 13.5133 -12.2421 0
M  V30 38 H -14.5825 15.9102 -11.2979 0
M  V30 39 H -15.8374 14.6877 -11.1652 0
M  V30 40 C -16.9979 -12.7065 -13.5768 0
M  V30 41 C -15.7911 -12.3766 -12.6868 0
M  V30 42 C -14.5856 -13.0729 -13.1366 0
M  V30 43 C -13.9217 -12.5734 -14.2647 0
M  V30 44 C -14.4679 -11.3469 -14.9148 0
M  V30 45 N -14.1511 -10.1483 -14.1511 0
M  V30 46 C -12.8021 -13.2292 -14.7144 0
M  V30 47 C -12.0823 -12.7191 -15.9184 0
M  V30 48 C -12.7404 -13.0904 -17.2056 0
M  V30 49 C -12.3508 -14.3665 -14.0476 0
M  V30 50 C -11.1331 -15.0532 -14.5542 0
M  V30 51 N -9.9653 -14.3027 -14.1825 0
M  V30 52 C -13.0079 -14.8655 -12.9270 0
M  V30 53 C -12.5005 -16.0907 -12.2366 0
M  V30 54 C -12.8971 -17.3616 -12.9529 0
M  V30 55 C -14.1457 -14.1924 -12.4766 0
M  V30 56 C -14.8043 -14.7306 -11.2642 0
M  V30 57 N -14.3341 -13.9995 -10.1169 0
M  V30 58 H -17.5157 -11.7734 -13.8884 0
M  V30 59 H -16.6793 -13.3638 -14.3960 0
M  V30 60 H -17.7838 -13.2816 -13.0162 0
M  V30 61 H -15.6415 -11.2567 -12.6684 0
M  V30 62 H -16.1195 -12.6197 -11.6679 0
M  V30 63 H -15.5304 -11.4156 -15.1742 0
M  V30 64 H -13.9373 -11.2157 -15.9038 0
M  V30 65 H -11.0504 -13.1102 -15.9258 0
M  V30 66 H -11.9362 -11.6008 -15.8340 0
M  V30 67 H -13.6232 -13.7472 -17.0584 0
M  V30 68 H -13.0528 -12.2692 -17.8462 0
M  V30 69 H -12.0375 -13.7071 -17.8434 0
M  V30 70 H -11.2293 -15.0942 -15.6761 0
M  V30 71 H -11.0735 -16.1096 -14.2452 0
M  V30 72 H -11.3631 -16.0432 -12.2432 0
M  V30 73 H -12.7423 -16.0851 -11.1578 0
M  V30 74 H -12.0430 -18.0122 -13.2256 0
M  V30 75 H -13.5066 -17.1727 -13.8692 0
M  V30 76 H -13.5133 -17.9893 -12.2421 0
M  V30 77 H -15.9102 -14.5825 -11.2979 0
M  V30 78 H -14.6877 -15.8374 -11.1652 0
M  V30 79 C 12.7065 13.5768 -16.9979 0
M  V30 80 C 12.3766 12.6868 -15.7911 0
M  V30 81 C 13.0729 13.1366 -14.5856 0
M  V30 82 C 12.5734 14.2647 -13.9217 0
M  V30 83 C 11.3469 14.9148 -14.4679 0
M  V30 84 N 10.1483 14.1511 -14.1511 0
M  V30 85 C 13.2292 14.7144 -12.8021 0
M  V30 86 C 12.7191 15.9184 -12.0823 0
M  V30 87 C 13.0904 17.2056 -12.7404 0
M  V30 88 C 14.3665 14.0476 -12.3508 0
M  V30 89 C 15.0532 14.5542 -11.1331 0
M  V30 90 N 14.3027 14.1825 -9.9653 0
M  V30 91 C 14.8655 12.9270 -13.0079 0
M  V30 92 C 16.0907 12.2366 -12.5005 0
M  V30 93 C 17.3616 12.9529 -12.8971 0
M  V30 94 C 14.1924 12.4766 -14.1457 0
M  V30 95 C 14.7306 11.2642 -14.8043 0
M  V30 96 N 13.9995 10.1169 -14.3341 0
M  V30 97 H 11.7734 13.8884 -17.5157 0
M  V30 98 H 13.3638 14.3960 -16.6793 0
M  V30 99 H 13.2816 13.0162 -17.7838 0
M  V30 100 H 11.2567 12.6684 -15.6415 0
M  V30 101 H 12.6197 11.6679 -16.1195 0
M  V30 102 H 11.4156 15.1742 -15.5304 0
M  V30 103 H 11.2157 15.9038 -13.9373 0
M  V30 104 H 13.1102 15.9258 -11.0504 0
M  V30 105 H 11.6008 15.8340 -11.9362 0
M  V30 106 H 13.7472 17.0584 -13.6232 0
M  V30 107 H 12.2692 17.8462 -13.0528 0
M  V30 108 H 13.7071 17.8434 -12.0375 0
M  V30 109 H 15.0942 15.6761 -11.2293 0
M  V30 110 H 16.1096 14.2452 -11.0735 0
M  V30 111 H 16.0432 12.2432 -11.3631 0
M  V30 112 H 16.0851 11.1578 -12.7423 0
M  V30 113 H 18.0122 13.2256 -12.0430 0
M  V30 114 H 17.1727 13.8692 -13.5066 0
M  V30 115 H 17.9893 12.2421 -13.5133 0
M  V30 116 H 14.5825 11.2979 -15.9102 0
M  V30 117 H 15.8374 11.1652 -14.6877 0
M  V30 118 C 12.7065 -16.9979 -13.5768 0
M  V30 119 C 12.3766 -15.7911 -12.6868 0
M  V30 120 C 13.0729 -14.5856 -13.1366 0
M  V30 121 C 12.5734 -13.9217 -14.2647 0
M  V30 122 C 11.3469 -14.4679 -14.9148 0
M  V30 123 N 10.1483 -14.1511 -14.1511 0
M  V30 124 C 13.2292 -12.8021 -14.7144 0
M  V30 125 C 12.7191 -12.0823 -15.9184 0
M  V30 126 C 13.0904 -12.7404 -17.2056 0
M  V30 127 C 14.3665 -12.3508 -14.0476 0
M  V30 128 C 15.0532 -11.1331 -14.5542 0
M  V30 129 N 14.3027 -9.9653 -14.1825 0
M  V30 130 C 14.8655 -13.0079 -12.9270 0
M  V30 131 C 16.0907 -12.5005 -12.2366 0
M  V30 132 C 17.3616 -12.8971 -12.9529 0
M  V30 133 C 14.1924 -14.1457 -12.4766 0
M  V30 134 C 14.7306 -14.8043 -11.2642 0
M  V30 135 N 13.9995 -14.3341 -10.1169 0
M  V30 136 H 11.7734 -17.5157 -13.8884 0
M  V30 137 H 13.3638 -16.6793 -14.3960 0
M  V30 138 H 13.2816 -17.7838 -13.0162 0
M  V30 139 H 11.2567 -15.6415 -12.6684 0
M  V30 140 H 12.6197 -16.1195 -11.6679 0
M  V30 141 H 11.4156 -15.5304 -15.1742 0
M  V30 142 H 11.2157 -13.9373 -15.9038 0
M  V30 143 H 13.1102 -11.0504 -15.9258 0
M  V30 144 H 11.6008 -11.9362 -15.8340 0
M  V30 145 H 13.7472 -13.6232 -17.0584 0
M  V30 146 H 12.2692 -13.0528 -17.8462 0
M  V30 147 H 13.7071 -12.0375 -17.8434 0
M  V30 148 H 15.0942 -11.2293 -15.6761 0
M  V30 149 H 16.1096 -11.0735 -14.2452 0
M  V30 150 H 16.0432 -11.3631 -12.2432 0
M  V30 151 H 16.0851 -12.7423 -11.1578 0
M  V30 152 H 18.0122 -12.0430 -13.2256 0
M  V30 153 H 17.1727 -13.5066 -13.8692 0
M  V30 154 H 17.9893 -13.5133 -12.2421 0
M  V30 155 H 14.5825 -15.9102 -11.2979 0
M  V30 156 H 15.8374 -14.6877 -11.1652 0
M  V30 157 C -12.7065 13.5768 16.9979 0
M  V30 158 C -12.3766 12.6868 15.7911 0
M  V30 159 C -13.0729 13.1366 14.5856 0
M  V30 160 C -12.5734 14.2647 13.9217 0
M  V30 161 C -11.3469 14.9148 14.4679 0
M  V30 162 N -10.1483 14.1511 14.1511 0
M  V30 163 C -13.2292 14.7144 12.8021 0
M  V30 164 C -12.7191 15.9184 12.0823 0
M  V30 165 C -13.0904 17.2056 12.7404 0
M  V30 166 C -14.3665 14.0476 12.3508 0
M  V30 167 C -15.0532 14.5542 11.1331 0
M  V30 168 N -14.3027 14.1825 9.9653 0
M  V30 169 C -14.8655 12.9270 13.0079 0
M  V30 170 C -16.0907 12.2366 12.5005 0
M  V30 171 C -17.3616 12.9529 12.8971 0
M  V30 172 C -14.1924 12.4766 14.1457 0
M  V30 173 C -14.7306 11.2642 14.8043 0
M  V30 174 N -13.9995 10.1169 14.3341 0
M  V30 175 H -11.7734 13.8884 17.5157 0
M  V30 176 H -13.3638 14.3960 16.6793 0
M  V30 177 H -13.2816 13.0162 17.7838 0
M  V30 178 H -11.2567 12.6684 15.6415 0
M  V30 179 H -12.6197 11.6679 16.1195 0
M  V30 180 H -11.4156 15.1742 15.5304 0
M  V30 181 H -11.2157 15.9038 13.9373 0
M  V30 182 H -13.1102 15.9258 11.0504 0
M  V30 183 H -11.6008 15.8340 11.9362 0
M  V30 184 H -13.7472 17.0584 13.6232 0
M  V30 185 H -12.2692 17.8462 13.0528 0
M  V30 186 H -13.7071 17.8434 12.0375 0
M  V30 187 H -15.0942 15.6761 11.2293 0
M  V30 188 H -16.1096 14.2452 11.0735 0
M  V30 189 H -16.0432 12.2432 11.3631 0
M  V30 190 H -16.0851 11.1578 12.7423 0
M  V30 191 H -18.0122 13.2256 12.0430 0
M  V30 192 H -17.1727 13.8692 13.5066 0
M  V30 193 H -17.9893 12.2421 13.5133 0
M  V30 194 H -14.5825 11.2979 15.9102 0
M  V30 195 H -15.8374 11.1652 14.6877 0
M  V30 196 C -13.5768 -12.7065 16.9979 0
M  V30 197 C -12.6868 -12.3766 15.7911 0
M  V30 198 C -13.1366 -13.0729 14.5856 0
M  V30 199 C -14.2647 -12.5734 13.9217 0
M  V30 200 C -14.9148 -11.3469 14.4679 0
M  V30 201 N -14.1511 -10.1483 14.1511 0
M  V30 202 C -14.7144 -13.2292 12.8021 0
M  V30 203 C -15.9184 -12.7191 12.0823 0
M  V30 204 C -17.2056 -13.0904 12.7404 0
M  V30 205 C -14.0476 -14.3665 12.3508 0
M  V30 206 C -14.5542 -15.0532 11.1331 0
M  V30 207 N -14.1825 -14.3027 9.9653 0
M  V30 208 C -12.9270 -14.8655 13.0079 0
M  V30 209 C -12.2366 -16.0907 12.5005 0
M  V30 210 C -12.9529 -17.3616 12.8971 0
M  V30 211 C -12.4766 -14.1924 14.1457 0
M  V30 212 C -11.2642 -14.7306 14.8043 0
M  V30 213 N -10.1169 -13.9995 14.3341 0
M  V30 214 H -13.8884 -11.7734 17.5157 0
M  V30 215 H -14.3960 -13.3638 16.6793 0
M  V30 216 H -13.0162 -13.2816 17.7838 0
M  V30 217 H -12.6684 -11.2567 15.6415 0
M  V30 218 H -11.6679 -12.6197 16.1195 0
M  V30 219 H -15.1742 -11.4156 15.5304 0
M  V30 220 H -15.9038 -11.2157 13.9373 0
M  V30 221 H -15.9258 -13.1102 11.0504 0
M  V30 222 H -15.8340 -11.6008 11.9362 0
M  V30 223 H -17.0584 -13.7472 13.6232 0
M  V30 224 H -17.8462 -12.2692 13.0528 0
M  V30 225 H -17.8434 -13.7071 12.0375 0
M  V30 226 H -15.6761 -15.0942 11.2293 0
M  V30 227 H -14.2452 -16.1096 11.0735 0
M  V30 228 H -12.2432 -16.0432 11.3631 0
M  V30 229 H -11.1578 -16.0851 12.7423 0
M  V30 230 H -13.2256 -18.0122 12.0430 0
M  V30 231 H -13.8692 -17.1727 13.5066 0
M  V30 232 H -12.2421 -17.9893 13.5133 0
M  V30 233 H -11.2979 -14.5825 15.9102 0
M  V30 234 H -11.1652 -15.8374 14.6877 0
M  V30 235 C 12.7065 16.9979 13.5768 0
M  V30 236 C 12.3766 15.7911 12.6868 0
M  V30 237 C 13.0729 14.5856 13.1366 0
M  V30 238 C 12.5734 13.9217 14.2647 0
M  V30 239 C 11.3469 14.4679 14.9148 0
M  V30 240 N 10.1483 14.1511 14.1511 0
M  V30 241 C 13.2292 12.8021 14.7144 0
M  V30 242 C 12.7191 12.0823 15.9184 0
M  V30 243 C 13.0904 12.7404 17.2056 0
M  V30 244 C 14.3665 12.3508 14.0476 0
M  V30 245 C 15.0532 11.1331 14.5542 0
M  V30 246 N 14.3027 9.9653 14.1825 0
M  V30 247 C 14.8655 13.0079 12.9270 0
M  V30 248 C 16.0907 12.5005 12.2366 0
M  V30 249 C 17.3616 12.8971 12.9529 0
M  V30 250 C 14.1924 14.1457 12.4766 0
M  V30 251 C 14.7306 14.8043 11.2642 0
M  V30 252 N 13.9995 14.3341 10.1169 0
M  V30 253 H 11.7734 17.5157 13.8884 0
M  V30 254 H 13.3638 16.6793 14.3960 0
M  V30 255 H 13.2816 17.7838 13.0162 0
M  V30 256 H 11.2567 15.6415 12.6684 0
M  V30 257 H 12.6197 16.1195 11.6679 0
M  V30 258 H 11.4156 15.5304 15.1742 0
M  V30 259 H 11.2157 13.9373 15.9038 0
M  V30 260 H 13.1102 11.0504 15.9258 0
M  V30 261 H 11.6008 11.9362 15.8340 0
M  V30 262 H 13.7472 13.6232 17.0584 0
M  V30 263 H 12.2692 13.0528 17.8462 0
M  V30 264 H 13.7071 12.0375 17.8434 0
M  V30 265 H 15.0942 11.2293 15.6761 0
M  V30 266 H 16.1096 11.0735 14.2452 0
M  V30 267 H 16.0432 11.3631 12.2432 0
M  V30 268 H 16.0851 12.7423 11.1578 0
M  V30 269 H 18.0122 12.0430 13.2256 0
M  V30 270 H 17.1727 13.5066 13.8692 0
M  V30 271 H 17.9893 13.5133 12.2421 0
M  V30 272 H 14.5825 15.9102 11.2979 0
M  V30 273 H 15.8374 14.6877 11.1652 0
M  V30 274 C 12.7065 -13.5768 16.9979 0
M  V30 275 C 12.3766 -12.6868 15.7911 0
M  V30 276 C 13.0729 -13.1366 14.5856 0
M  V30 277 C 12.5734 -14.2647 13.9217 0
M  V30 278 C 11.3469 -14.9148 14.4679 0
M  V30 279 N 10.1483 -14.1511 14.1511 0
M  V30 280 C 13.2292 -14.7144 12.8021 0
M  V30 281 C 12.7191 -15.9184 12.0823 0
M  V30 282 C 13.0904 -17.2056 12.7404 0
M  V30 283 C 14.3665 -14.0476 12.3508 0
M  V30 284 C 15.0532 -14.5542 11.1331 0
M  V30 285 N 14.3027 -14.1825 9.9653 0
M  V30 286 C 14.8655 -12.9270 13.0079 0
M  V30 287 C 16.0907 -12.2366 12.5005 0
M  V30 288 C 17.3616 -12.9529 12.8971 0
M  V30 289 C 14.1924 -12.4766 14.1457 0
M  V30 290 C 14.7306 -11.2642 14.8043 0
M  V30 291 N 13.9995 -10.1169 14.3341 0
M  V30 292 H 11.7734 -13.8884 17.5157 0
M  V30 293 H 13.3638 -14.3960 16.6793 0
M  V30 294 H 13.2816 -13.0162 17.7838 0
M  V30 295 H 11.2567 -12.6684 15.6415 0
M  V30 296 H 12.6197 -11.6679 16.1195 0
M  V30 297 H 11.4156 -15.1742 15.5304 0
M  V30 298 H 11.2157 -15.9038 13.9373 0
M  V30 299 H 13.1102 -15.9258 11.0504 0
M  V30 300 H 11.6008 -15.8340 11.9362 0
M  V30 301 H 13.7472 -17.0584 13.6232 0
M  V30 302 H 12.2692 -17.8462 13.0528 0
M  V30 303 H 13.7071 -17.8434 12.0375 0
M  V30 304 H 15.0942 -15.6761 11.2293 0
M  V30 305 H 16.1096 -14.2452 11.0735 0
M  V30 306 H 16.0432 -12.2432 11.3631 0
M  V30 307 H 16.0851 -11.1578 12.7423 0
M  V30 308 H 18.0122 -13.2256 12.0430 0
M  V30 309 H 17.1727 -13.8692 13.5066 0
M  V30 310 H 17.9893 -12.2421 13.5133 0
M  V30 311 H 14.5825 -11.2979 15.9102 0
M  V30 312 H 15.8374 -11.1652 14.6877 0
M  V30 313 C -3.8693 14.1511 -14.1511 0
M  V30 314 C -2.4284 14.1775 -14.1772 0
M  V30 315 C -1.5014 13.4801 -13.4894 0
M  V30 316 C -0.2151 13.7501 -13.7557 0
M  V30 317 S 1.4213 13.0748 -13.0897 0
M  V30 318 C 2.4330 14.1335 -14.1337 0
M  V30 319 C 3.8693 14.1511 -14.1511 0
M  V30 320 C 1.5055 14.8290 -14.8197 0
M  V30 321 C 0.2187 14.5480 -14.5425 0
M  V30 322 S -1.4218 15.2241 -15.2093 0
M  V30 323 H -4.3682 13.4844 -13.4936 0
M  V30 324 H -1.8298 12.7224 -12.7422 0
M  V30 325 H 4.3885 14.8123 -14.8031 0
M  V30 326 H 1.8339 15.5882 -15.5683 0
M  V30 327 C -14.2269 3.7778 -14.1668 0
M  V30 328 C -14.2530 2.3369 -14.1932 0
M  V30 329 C -13.5638 1.4099 -13.4972 0
M  V30 330 C -13.8306 0.1236 -13.7666 0
M  V30 331 S -13.1633 -1.5128 -13.0928 0
M  V30 332 C -14.2095 -2.5245 -14.1492 0
M  V30 333 C -14.2269 -3.9608 -14.1668 0
M  V30 334 C -14.8969 -1.5970 -14.8433 0
M  V30 335 C -14.6192 -0.3102 -14.5629 0
M  V30 336 S -15.2873 1.3303 -15.2376 0
M  V30 337 H -13.5680 4.2767 -13.5015 0
M  V30 338 H -12.8149 1.7383 -12.7411 0
M  V30 339 H -14.8803 -4.4800 -14.8266 0
M  V30 340 H -15.6471 -1.9254 -15.6009 0
M  V30 341 C -3.7778 -14.2269 -14.1668 0
M  V30 342 C -2.3369 -14.2530 -14.1932 0
M  V30 343 C -1.4099 -13.5638 -13.4972 0
M  V30 344 C -0.1236 -13.8306 -13.7666 0
M  V30 345 S 1.5128 -13.1633 -13.0928 0
M  V30 346 C 2.5245 -14.2095 -14.1492 0
M  V30 347 C 3.9608 -14.2269 -14.1668 0
M  V30 348 C 1.5970 -14.8969 -14.8433 0
M  V30 349 C 0.3102 -14.6192 -14.5629 0
M  V30 350 S -1.3303 -15.2873 -15.2376 0
M  V30 351 H -4.2767 -13.5680 -13.5015 0
M  V30 352 H -1.7383 -12.8149 -12.7411 0
M  V30 353 H 4.4800 -14.8803 -14.8266 0
M  V30 354 H 1.9254 -15.6471 -15.6009 0
M  V30 355 C 14.1511 3.9451 -14.2583 0
M  V30 356 C 14.1774 2.5042 -14.2845 0
M  V30 357 C 13.4826 1.5772 -13.5941 0
M  V30 358 C 13.7516 0.2909 -13.8614 0
M  V30 359 S 13.0788 -1.3455 -13.1929 0
M  V30 360 C 14.1335 -2.3572 -14.2409 0
M  V30 361 C 14.1511 -3.7935 -14.2583 0
M  V30 362 C 14.8265 -1.4297 -14.9294 0
M  V30 363 C 14.5465 -0.1429 -14.6512 0
M  V30 364 S 15.2201 1.4976 -15.3205 0
M  V30 365 H 13.4869 4.4440 -13.5983 0
M  V30 366 H 12.7277 1.9056 -12.8440 0
M  V30 367 H 14.8098 -4.3128 -14.9128 0
M  V30 368 H 15.5828 -1.7581 -15.6809 0
M  V30 369 C -3.8693 14.1511 14.1511 0
M  V30 370 C -2.4284 14.1772 14.1775 0
M  V30 371 C -1.5014 13.4894 13.4801 0
M  V30 372 C -0.2151 13.7557 13.7501 0
M  V30 373 S 1.4213 13.0897 13.0748 0
M  V30 374 C 2.4330 14.1337 14.1335 0
M  V30 375 C 3.8693 14.1511 14.1511 0
M  V30 376 C 1.5055 14.8197 14.8290 0
M  V30 377 C 0.2187 14.5425 14.5480 0
M  V30 378 S -1.4218 15.2093 15.2241 0
M  V30 379 H -4.3682 13.4936 13.4844 0
M  V30 380 H -1.8298 12.7422 12.7224 0
M  V30 381 H 4.3885 14.8031 14.8123 0
M  V30 382 H 1.8339 15.5683 15.5882 0
M  V30 383 C -14.0753 3.8536 14.2426 0
M  V30 384 C -14.1016 2.4127 14.2688 0
M  V30 385 C -13.4082 1.4857 13.5769 0
M  V30 386 C -13.6766 0.1994 13.8448 0
M  V30 387 S -13.0053 -1.4370 13.1749 0
M  V30 388 C -14.0578 -2.4487 14.2251 0
M  V30 389 C -14.0753 -3.8850 14.2426 0
M  V30 390 C -14.7493 -1.5212 14.9152 0
M  V30 391 C -14.4699 -0.2344 14.6364 0
M  V30 392 S -15.1421 1.4061 15.3071 0
M  V30 393 H -13.4125 4.3525 13.5812 0
M  V30 394 H -12.6549 1.8141 12.8253 0
M  V30 395 H -14.7326 -4.4042 14.8985 0
M  V30 396 H -15.5040 -1.8496 15.6683 0
M  V30 397 C -3.8536 -14.0753 14.2426 0
M  V30 398 C -2.4127 -14.1016 14.2688 0
M  V30 399 C -1.4857 -13.4082 13.5769 0
M  V30 400 C -0.1994 -13.6766 13.8448 0
M  V30 401 S 1.4370 -13.0053 13.1749 0
M  V30 402 C 2.4487 -14.0578 14.2251 0
M  V30 403 C 3.8850 -14.0753 14.2426 0
M  V30 404 C 1.5212 -14.7493 14.9152 0
M  V30 405 C 0.2344 -14.4699 14.6364 0
M  V30 406 S -1.4061 -15.1421 15.3071 0
M  V30 407 H -4.3525 -13.4125 13.5812 0
M  V30 408 H -1.8141 -12.6549 12.8253 0
M  V30 409 H 4.4042 -14.7326 14.8985 0
M  V30 410 H 1.8496 -15.5040 15.6683 0
M  V30 411 C 14.1511 3.7935 14.2583 0
M  V30 412 C 14.1771 2.3526 14.2848 0
M  V30 413 C 13.4919 1.4256 13.5848 0
M  V30 414 C 13.7572 0.1393 13.8558 0
M  V30 415 S 13.0938 -1.4971 13.1780 0
M  V30 416 C 14.1338 -2.5088 14.2406 0
M  V30 417 C 14.1511 -3.9451 14.2583 0
M  V30 418 C 14.8171 -1.5813 14.9388 0
M  V30 419 C 14.5410 -0.2945 14.6567 0
M  V30 420 S 15.2052 1.3460 15.3353 0
M  V30 421 H 13.4962 4.2924 13.5891 0
M  V30 422 H 12.7476 1.7540 12.8243 0
M  V30 423 H 14.8006 -4.4643 14.9219 0
M  V30 424 H 15.5629 -1.9097 15.7007 0
M  V30 425 C -14.1511 14.2583 -3.9451 0
M  V30 426 C -14.1774 14.2845 -2.5042 0
M  V30 427 C -13.4826 13.5941 -1.5772 0
M  V30 428 C -13.7516 13.8614 -0.2909 0
M  V30 429 S -13.0788 13.1929 1.3455 0
M  V30 430 C -14.1335 14.2409 2.3572 0
M  V30 431 C -14.1511 14.2583 3.7935 0
M  V30 432 C -14.8265 14.9294 1.4297 0
M  V30 433 C -14.5465 14.6512 0.1429 0
M  V30 434 S -15.2201 15.3205 -1.4976 0
M  V30 435 H -13.4869 13.5983 -4.4440 0
M  V30 436 H -12.7277 12.8440 -1.9056 0
M  V30 437 H -14.8098 14.9128 4.3128 0
M  V30 438 H -15.5828 15.6809 1.7581 0
M  V30 439 C -14.2583 -14.1511 -3.9451 0
M  V30 440 C -14.2845 -14.1774 -2.5042 0
M  V30 441 C -13.5941 -13.4826 -1.5772 0
M  V30 442 C -13.8614 -13.7516 -0.2909 0
M  V30 443 S -13.1929 -13.0788 1.3455 0
M  V30 444 C -14.2409 -14.1335 2.3572 0
M  V30 445 C -14.2583 -14.1511 3.7935 0
M  V30 446 C -14.9294 -14.8265 1.4297 0
M  V30 447 C -14.6512 -14.5465 0.1429 0
M  V30 448 S -15.3205 -15.2201 -1.4976 0
M  V30 449 H -13.5983 -13.4869 -4.4440 0
M  V30 450 H -12.8440 -12.7277 -1.9056 0
M  V30 451 H -14.9128 -14.8098 4.3128 0
M  V30 452 H -15.6809 -15.5828 1.7581 0
M  V30 453 C 14.1511 14.2583 -3.7935 0
M  V30 454 C 14.1771 14.2848 -2.3526 0
M  V30 455 C 13.4919 13.5848 -1.4256 0
M  V30 456 C 13.7572 13.8558 -0.1393 0
M  V30 457 S 13.0938 13.1780 1.4971 0
M  V30 458 C 14.1338 14.2406 2.5088 0
M  V30 459 C 14.1511 14.2583 3.9451 0
M  V30 460 C 14.8171 14.9388 1.5813 0
M  V30 461 C 14.5410 14.6567 0.2945 0
M  V30 462 S 15.2052 15.3353 -1.3460 0
M  V30 463 H 13.4962 13.5891 -4.2924 0
M  V30 464 H 12.7476 12.8243 -1.7540 0
M  V30 465 H 14.8006 14.9219 4.4643 0
M  V30 466 H 15.5629 15.7007 1.9097 0
M  V30 467 C 14.1511 -14.2583 -3.9451 0
M  V30 468 C 14.1774 -14.2845 -2.5042 0
M  V30 469 C 13.4826 -13.5941 -1.5772 0
M  V30 470 C 13.7516 -13.8614 -0.2909 0
M  V30 471 S 13.0788 -13.1929 1.3455 0
M  V30 472 C 14.1335 -14.2409 2.3572 0
M  V30 473 C 14.1511 -14.2583 3.7935 0
M  V30 474 C 14.8265 -14.9294 1.4297 0
M  V30 475 C 14.5465 -14.6512 0.1429 0
M  V30 476 S 15.2201 -15.3205 -1.4976 0
M  V30 477 H 13.4869 -13.5983 -4.4440 0
M  V30 478 H 12.7277 -12.8440 -1.9056 0
M  V30 479 H 14.8098 -14.9128 4.3128 0
M  V30 480 H 15.5828 -15.6809 1.7581 0
M  V30 END ATOM
M  V30 BEGIN BOND
M  V30 1 1 1 2
M  V30 2 1 2 3
M  V30 3 2 3 4
M  V30 4 1 4 5
M  V30 5 1 5 6
M  V30 6 1 4 7
M  V30 7 1 7 8
M  V30 8 1 8 9
M  V30 9 2 7 10
M  V30 10 1 10 11
M  V30 11 1 11 12
M  V30 12 1 10 13
M  V30 13 1 13 14
M  V30 14 1 14 15
M  V30 15 2 13 16
M  V30 16 1 16 17
M  V30 17 1 17 18
M  V30 18 1 16 3
M  V30 19 1 1 19
M  V30 20 1 1 20
M  V30 21 1 1 21
M  V30 22 1 2 22
M  V30 23 1 2 23
M  V30 24 1 5 24
M  V30 25 1 5 25
M  V30 26 1 8 26
M  V30 27 1 8 27
M  V30 28 1 9 28
M  V30 29 1 9 29
M  V30 30 1 9 30
M  V30 31 1 11 31
M  V30 32 1 11 32
M  V30 33 1 14 33
M  V30 34 1 14 34
M  V30 35 1 15 35
M  V30 36 1 15 36
M  V30 37 1 15 37
M  V30 38 1 17 38
M  V30 39 1 17 39
M  V30 40 1 40 41
M  V30 41 1 41 42
M  V30 42 2 42 43
M  V30 43 1 43 44
M  V30 44 1 44 45
M  V30 45 1 43 46
M  V30 46 1 46 47
M  V30 47 1 47 48
M  V30 48 2 46 49
M  V30 49 1 49 50
M  V30 50 1 50 51
M  V30 51 1 49 52
M  V30 52 1 52 53
M  V30 53 1 53 54
M  V30 54 2 52 55
M  V30 55 1 55 56
M  V30 56 1 56 57
M  V30 57 1 55 42
M  V30 58 1 40 58
M  V30 59 1 40 59
M  V30 60 1 40 60
M  V30 61 1 41 61
M  V30 62 1 41 62
M  V30 63 1 44 63
M  V30 64 1 44 64
M  V30 65 1 47 65
M  V30 66 1 47 66
M  V30 67 1 48 67
M  V30 68 1 48 68
M  V30 69 1 48 69
M  V30 70 1 50 70
M  V30 71 1 50 71
M  V30 72 1 53 72
M  V30 73 1 53 73
M  V30 74 1 54 74
M  V30 75 1 54 75
M  V30 76 1 54 76
M  V30 77 1 56 77
M  V30 78 1 56 78
M  V30 79 1 79 80
M  V30 80 1 80 81
M  V30 81 2 81 82
M  V30 82 1 82 83
M  V30 83 1 83 84
M  V30 84 1 82 85
M  V30 85 1 85 86
M  V30 86 1 86 87
M  V30 87 2 85 88
M  V30 88 1 88 89
M  V30 89 1 89 90
M  V30 90 1 88 91
M  V30 91 1 91 92
M  V30 92 1 92 93
M  V30 93 2 91 94
M  V30 94 1 94 95
M  V30 95 1 95 96
M  V30 96 1 94 81
M  V30 97 1 79 97
M  V30 98 1 79 98
M  V30 99 1 79 99
M  V30 100 1 80 100
M  V30 101 1 80 101
M  V30 102 1 83 102
M  V30 103 1 83 103
M  V30 104 1 86 104
M  V30 105 1 86 105
M  V30 106 1 87 106
M  V30 107 1 87 107
M  V30 108 1 87 108
M  V30 109 1 89 109
M  V30 110 1 89 110
M  V30 111 1 92 111
M  V30 112 1 92 112
M  V30 113 1 93 113
M  V30 114 1 93 114
M  V30 115 1 93 115
M  V30 116 1 95 116
M  V30 117 1 95 117
M  V30 118 1 118 119
M  V30 119 1 119 120
M  V30 120 2 120 121
M  V30 121 1 121 122
M  V30 122 1 122 123
M  V30 123 1 121 124
M  V30 124 1 124 125
M  V30 125 1 125 126
M  V30 126 2 124 127
M  V30 127 1 127 128
M  V30 128 1 128 129
M  V30 129 1 127 130
M  V30 130 1 130 131
M  V30 131 1 131 132
M  V30 132 2 130 133
M  V30 133 1 133 134
M  V30 134 1 134 135
M  V30 135 1 133 120
M  V30 136 1 118 136
M  V30 137 1 118 137
M  V30 138 1 118 138
M  V30 139 1 119 139
M  V30 140 1 119 140
M  V30 141 1 122 141
M  V30 142 1 122 142
M  V30 143 1 125 143
M  V30 144 1 125 144
M  V30 145 1 126 145
M  V30 146 1 126 146
M  V30 147 1 126 147
M  V30 148 1 128 148
M  V30 149 1 128 149
M  V30 150 1 131 150
M  V30 151 1 131 151
M  V30 152 1 132 152
M  V30 153 1 132 153
M  V30 154 1 132 154
M  V30 155 1 134 155
M  V30 156 1 134 156
M  V30 157 1 157 158
M  V30 158 1 158 159
M  V30 159 2 159 160
M  V30 160 1 160 161
M  V30 161 1 161 162
M  V30 162 1 160 163
M  V30 163 1 163 164
M  V30 164 1 164 165
M  V30 165 2 163 166
M  V30 166 1 166 167
M  V30 167 1 167 168
M  V30 168 1 166 169
M  V30 169 1 169 170
M  V30 170 1 170 171
M  V30 171 2 169 172
M  V30 172 1 172 173
M  V30 173 1 173 174
M  V30 174 1 172 159
M  V30 175 1 157 175
M  V30 176 1 157 176
M  V30 177 1 157 177
M  V30 178 1 158 178
M  V30 179 1 158 179
M  V30 180 1 161 180
M  V30 181 1 161 181
M  V30 182 1 164 182
M  V30 183 1 164 183
M  V30 184 1 165 184
M  V30 185 1 165 185
M  V30 186 1 165 186
M  V30 187 1 167 187
M  V30 188 1 167 188
M  V30 189 1 170 189
M  V30 190 1 170 190
M  V30 191 1 171 191
M  V30 192 1 171 192
M  V30 193 1 171 193
M  V30 194 1 173 194
M  V30 195 1 173 195
M  V30 196 1 196 197
M  V30 197 1 197 198
M  V30 198 2 198 199
M  V30 199 1 199 200
M  V30 200 1 200 201
M  V30 201 1 199 202
M  V30 202 1 202 203
M  V30 203 1 203 204
M  V30 204 2 202 205
M  V30 205 1 205 206
M  V30 206 1 206 207
M  V30 207 1 205 208
M  V30 208 1 208 209
M  V30 209 1 209 210
M  V30 210 2 208 211
M  V30 211 1 211 212
M  V30 212 1 212 213
M  V30 213 1 211 198
M  V30 214 1 196 214
M  V30 215 1 196 215
M  V30 216 1 196 216
M  V30 217 1 197 217
M  V30 218 1 197 218
M  V30 219 1 200 219
M  V30 220 1 200 220
M  V30 221 1 203 221
M  V30 222 1 203 222
M  V30 223 1 204 223
M  V30 224 1 204 224
M  V30 225 1 204 225
M  V30 226 1 206 226
M  V30 227 1 206 227
M  V30 228 1 209 228
M  V30 229 1 209 229
M  V30 230 1 210 230
M  V30 231 1 210 231
M  V30 232 1 210 232
M  V30 233 1 212 233
M  V30 234 1 212 234
M  V30 235 1 235 236
M  V30 236 1 236 237
M  V30 237 2 237 238
M  V30 238 1 238 239
M  V30 239 1 239 240
M  V30 240 1 238 241
M  V30 241 1 241 242
M  V30 242 1 242 243
M  V30 243 2 241 244
M  V30 244 1 244 245
M  V30 245 1 245 246
M  V30 246 1 244 247
M  V30 247 1 247 248
M  V30 248 1 248 249
M  V30 249 2 247 250
M  V30 250 1 250 251
M  V30 251 1 251 252
M  V30 252 1 250 237
M  V30 253 1 235 253
M  V30 254 1 235 254
M  V30 255 1 235 255
M  V30 256 1 236 256
M  V30 257 1 236 257
M  V30 258 1 239 258
M  V30 259 1 239 259
M  V30 260 1 242 260
M  V30 261 1 242 261
M  V30 262 1 243 262
M  V30 263 1 243 263
M  V30 264 1 243 264
M  V30 265 1 245 265
M  V30 266 1 245 266
M  V30 267 1 248 267
M  V30 268 1 248 268
M  V30 269 1 249 269
M  V30 270 1 249 270
M  V30 271 1 249 271
M  V30 272 1 251 272
M  V30 273 1 251 273
M  V30 274 1 274 275
M  V30 275 1 275 276
M  V30 276 2 276 277
M  V30 277 1 277 278
M  V30 278 1 278 279
M  V30 279 1 277 280
M  V30 280 1 280 281
M  V30 281 1 281 282
M  V30 282 2 280 283
M  V30 283 1 283 284
M  V30 284 1 284 285
M  V30 285 1 283 286
M  V30 286 1 286 287
M  V30 287 1 287 288
M  V30 288 2 286 289
M  V30 289 1 289 290
M  V30 290 1 290 291
M  V30 291 1 289 276
M  V30 292 1 274 292
M  V30 293 1 274 293
M  V30 294 1 274 294
M  V30 295 1 275 295
M  V30 296 1 275 296
M  V30 297 1 278 297
M  V30 298 1 278 298
M  V30 299 1 281 299
M  V30 300 1 281 300
M  V30 301 1 282 301
M  V30 302 1 282 302
M  V30 303 1 282 303
M  V30 304 1 284 304
M  V30 305 1 284 305
M  V30 306 1 287 306
M  V30 307 1 287 307
M  V30 308 1 288 308
M  V30 309 1 288 309
M  V30 310 1 288 310
M  V30 311 1 290 311
M  V30 312 1 290 312
M  V30 313 1 313 314
M  V30 314 2 314 315
M  V30 315 1 315 316
M  V30 316 1 316 317
M  V30 317 1 317 318
M  V30 318 1 318 319
M  V30 319 2 318 320
M  V30 320 1 320 321
M  V30 321 1 321 322
M  V30 322 1 322 314
M  V30 323 2 321 316
M  V30 324 1 313 323
M  V30 325 1 315 324
M  V30 326 1 319 325
M  V30 327 1 320 326
M  V30 328 1 327 328
M  V30 329 2 328 329
M  V30 330 1 329 330
M  V30 331 1 330 331
M  V30 332 1 331 332
M  V30 333 1 332 333
M  V30 334 2 332 334
M  V30 335 1 334 335
M  V30 336 1 335 336
M  V30 337 1 336 328
M  V30 338 2 335 330
M  V30 339 1 327 337
M  V30 340 1 329 338
M  V30 341 1 333 339
M  V30 342 1 334 340
M  V30 343 1 341 342
M  V30 344 2 342 343
M  V30 345 1 343 344
M  V30 346 1 344 345
M  V30 347 1 345 346
M  V30 348 1 346 347
M  V30 349 2 346 348
M  V30 350 1 348 349
M  V30 351 1 349 350
M  V30 352 1 350 342
M  V30 353 2 349 344
M  V30 354 1 341 351
M  V30 355 1 343 352
M  V30 356 1 347 353
M  V30 357 1 348 354
M  V30 358 1 355 356
M  V30 359 2 356 357
M  V30 360 1 357 358
M  V30 361 1 358 359
M  V30 362 1 359 360
M  V30 363 1 360 361
M  V30 364 2 360 362
M  V30 365 1 362 363
M  V30 366 1 363 364
M  V30 367 1 364 356
M  V30 368 2 363 358
M  V30 369 1 355 365
M  V30 370 1 357 366
M  V30 371 1 361 367
M  V30 372 1 362 368
M  V30 373 1 369 370
M  V30 374 2 370 371
M  V30 375 1 371 372
M  V30 376 1 372 373
M  V30 377 1 373 374
M  V30 378 1 374 375
M  V30 379 2 374 376
M  V30 380 1 376 377
M  V30 381 1 377 378
M  V30 382 1 378 370
M  V30 383 2 377 372
M  V30 384 1 369 379
M  V30 385 1 371 380
M  V30 386 1 375 381
M  V30 387 1 376 382
M  V30 388 1 383 384
M  V30 389 2 384 385
M  V30 390 1 385 386
M  V30 391 1 386 387
M  V30 392 1 387 388
M  V30 393 1 388 389
M  V30 394 2 388 390
M  V30 395 1 390 391
M  V30 396 1 391 392
M  V30 397 1 392 384
M  V30 398 2 391 386
M  V30 399 1 383 393
M  V30 400 1 385 394
M  V30 401 1 389 395
M  V30 402 1 390 396
M  V30 403 1 397 398
M  V30 404 2 398 399
M  V30 405 1 399 400
M  V30 406 1 400 401
M  V30 407 1 401 402
M  V30 408 1 402 403
M  V30 409 2 402 404
M  V30 410 1 404 405
M  V30 411 1 405 406
M  V30 412 1 406 398
M  V30 413 2 405 400
M  V30 414 1 397 407
M  V30 415 1 399 408
M  V30 416 1 403 409
M  V30 417 1 404 410
M  V30 418 1 411 412
M  V30 419 2 412 413
M  V30 420 1 413 414
M  V30 421 1 414 415
M  V30 422 1 415 416
M  V30 423 1 416 417
M  V30 424 2 416 418
M  V30 425 1 418 419
M  V30 426 1 419 420
M  V30 427 1 420 412
M  V30 428 2 419 414
M  V30 429 1 411 421
M  V30 430 1 413 422
M  V30 431 1 417 423
M  V30 432 1 418 424
M  V30 433 1 425 426
M  V30 434 2 426 427
M  V30 435 1 427 428
M  V30 436 1 428 429
M  V30 437 1 429 430
M  V30 438 1 430 431
M  V30 439 2 430 432
M  V30 440 1 432 433
M  V30 441 1 433 434
M  V30 442 1 434 426
M  V30 443 2 433 428
M  V30 444 1 425 435
M  V30 445 1 427 436
M  V30 446 1 431 437
M  V30 447 1 432 438
M  V30 448 1 439 440
M  V30 449 2 440 441
M  V30 450 1 441 442
M  V30 451 1 442 443
M  V30 452 1 443 444
M  V30 453 1 444 445
M  V30 454 2 444 446
M  V30 455 1 446 447
M  V30 456 1 447 448
M  V30 457 1 448 440
M  V30 458 2 447 442
M  V30 459 1 439 449
M  V30 460 1 441 450
M  V30 461 1 445 451
M  V30 462 1 446 452
M  V30 463 1 453 454
M  V30 464 2 454 455
M  V30 465 1 455 456
M  V30 466 1 456 457
M  V30 467 1 457 458
M  V30 468 1 458 459
M  V30 469 2 458 460
M  V30 470 1 460 461
M  V30 471 1 461 462
M  V30 472 1 462 454
M  V30 473 2 461 456
M  V30 474 1 453 463
M  V30 475 1 455 464
M  V30 476 1 459 465
M  V30 477 1 460 466
M  V30 478 1 467 468
M  V30 479 2 468 469
M  V30 480 1 469 470
M  V30 481 1 470 471
M  V30 482 1 471 472
M  V30 483 1 472 473
M  V30 484 2 472 474
M  V30 485 1 474 475
M  V30 486 1 475 476
M  V30 487 1 476 468
M  V30 488 2 475 470
M  V30 489 1 467 477
M  V30 490 1 469 478
M  V30 491 1 473 479
M  V30 492 1 474 480
M  V30 493 2 6 313
M  V30 494 2 84 319
M  V30 495 2 12 327
M  V30 496 2 45 333
M  V30 497 2 51 341
M  V30 498 2 123 347
M  V30 499 2 96 355
M  V30 500 2 129 361
M  V30 501 2 162 369
M  V30 502 2 240 375
M  V30 503 2 174 383
M  V30 504 2 201 389
M  V30 505 2 213 397
M  V30 506 2 279 403
M  V30 507 2 246 411
M  V30 508 2 291 417
M  V30 509 2 18 425
M  V30 510 2 168 431
M  V30 511 2 57 439
M  V30 512 2 207 445
M  V30 513 2 90 453
M  V30 514 2 252 459
M  V30 515 2 135 467
M  V30 516 2 285 473
M  V30 END BOND
M  V30 END CTAB
M  END

$$$$
