
     RDKit          3D

  0  0  0  0  0  0  0  0  0  0999 V3000
M  V30 BEGIN CTAB
M  V30 COUNTS 240 258 0 0 0
M  V30 BEGIN ATOM
M  V30 1 C -3.0345 1.0414 18.4864 0
M  V30 2 C -2.4144 1.1407 17.0853 0
M  V30 3 C -1.0696 0.5656 17.0510 0
M  V30 4 C -0.9534 -0.8305 17.0307 0
M  V30 5 C -2.2069 -1.6390 17.0132 0
M  V30 6 N -2.8304 -1.6341 15.6974 0
M  V30 7 C 0.3020 -1.3871 17.0225 0
M  V30 8 C 0.4503 -2.8722 17.0075 0
M  V30 9 C 0.2475 -3.5029 18.3450 0
M  V30 10 C 1.4253 -0.5625 17.0335 0
M  V30 11 C 2.7719 -1.1930 17.0195 0
M  V30 12 N 3.0670 -1.6726 15.6974 0
M  V30 13 C 1.3136 0.8244 17.0541 0
M  V30 14 C 2.5386 1.6812 17.0699 0
M  V30 15 C 3.1569 1.7771 18.4462 0
M  V30 16 C 0.0330 1.3819 17.0623 0
M  V30 17 C -0.0521 2.8604 17.0533 0
M  V30 18 N -0.2366 3.3067 15.6974 0
M  V30 19 H -4.0604 0.6174 18.4264 0
M  V30 20 H -2.3444 0.5108 19.1549 0
M  V30 21 H -3.1835 2.0547 18.9485 0
M  V30 22 H -3.1005 0.6375 16.3417 0
M  V30 23 H -2.4748 2.2059 16.8270 0
M  V30 24 H -2.9096 -1.3890 17.8161 0
M  V30 25 H -1.9245 -2.7167 17.2020 0
M  V30 26 H 1.4565 -3.1398 16.6418 0
M  V30 27 H -0.2372 -3.3195 16.2288 0
M  V30 28 H 0.0877 -2.7543 19.1489 0
M  V30 29 H -0.5541 -4.2337 18.4212 0
M  V30 30 H 1.1806 -4.0589 18.6635 0
M  V30 31 H 2.7329 -2.0530 17.7465 0
M  V30 32 H 3.5610 -0.5337 17.4166 0
M  V30 33 H 3.3093 1.1921 16.3896 0
M  V30 34 H 2.3638 2.6585 16.5834 0
M  V30 35 H 4.2209 1.4714 18.4861 0
M  V30 36 H 2.5923 1.2007 19.2180 0
M  V30 37 H 3.1650 2.8653 18.7539 0
M  V30 38 H -0.9388 3.2239 17.6257 0
M  V30 39 H 0.8130 3.3455 17.5678 0
M  V30 40 C -14.4928 -11.1608 -4.1754 0
M  V30 41 C -13.2915 -10.2085 -4.2615 0
M  V30 42 C -13.5956 -9.0325 -5.0769 0
M  V30 43 C -14.3850 -8.0251 -4.5070 0
M  V30 44 C -14.8375 -8.2016 -3.0965 0
M  V30 45 N -13.7603 -7.9445 -2.1511 0
M  V30 46 C -14.6996 -6.9254 -5.2669 0
M  V30 47 C -15.5448 -5.8426 -4.6829 0
M  V30 48 C -17.0011 -6.1698 -4.6658 0
M  V30 49 C -14.2326 -6.8318 -6.5764 0
M  V30 50 C -14.5851 -5.6274 -7.3741 0
M  V30 51 N -13.7825 -4.5140 -6.9481 0
M  V30 52 C -13.4486 -7.8306 -7.1458 0
M  V30 53 C -12.9669 -7.7019 -8.5552 0
M  V30 54 C -14.0353 -8.0577 -9.5640 0
M  V30 55 C -13.1335 -8.9455 -6.3658 0
M  V30 56 C -12.2725 -9.9760 -6.9903 0
M  V30 57 N -10.9077 -9.7409 -6.5981 0
M  V30 58 H -14.6887 -11.4422 -3.1179 0
M  V30 59 H -15.3450 -10.7238 -4.7116 0
M  V30 60 H -14.2851 -12.1403 -4.6854 0
M  V30 61 H -12.9749 -9.9186 -3.2161 0
M  V30 62 H -12.4656 -10.8318 -4.6283 0
M  V30 63 H -15.3487 -9.1525 -2.9082 0
M  V30 64 H -15.6139 -7.4091 -2.8820 0
M  V30 65 H -15.4008 -4.9109 -5.2564 0
M  V30 66 H -15.1673 -5.5743 -3.6511 0
M  V30 67 H -17.2252 -7.1401 -5.1562 0
M  V30 68 H -17.4852 -6.1813 -3.6922 0
M  V30 69 H -17.5821 -5.4106 -5.2717 0
M  V30 70 H -15.6752 -5.4193 -7.1791 0
M  V30 71 H -14.5287 -5.7985 -8.4615 0
M  V30 72 H -12.6938 -6.6102 -8.7272 0
M  V30 73 H -12.0054 -8.2251 -8.7110 0
M  V30 74 H -14.2444 -7.2584 -10.3020 0
M  V30 75 H -14.9983 -8.3633 -9.0886 0
M  V30 76 H -13.6583 -8.9236 -10.1862 0
M  V30 77 H -12.5301 -11.0002 -6.6284 0
M  V30 78 H -12.4125 -10.0425 -8.0968 0
M  V30 79 C 16.9119 -6.9707 -4.1754 0
M  V30 80 C 15.4866 -6.4065 -4.2615 0
M  V30 81 C 14.6202 -7.2579 -5.0769 0
M  V30 82 C 14.1424 -8.4452 -4.5070 0
M  V30 83 C 14.5215 -8.7488 -3.0965 0
M  V30 84 N 13.7603 -7.9445 -2.1511 0
M  V30 85 C 13.3474 -9.2676 -5.2669 0
M  V30 86 C 12.8323 -10.5409 -4.6829 0
M  V30 87 C 13.8437 -11.6385 -4.6658 0
M  V30 88 C 13.0328 -8.9099 -6.5764 0
M  V30 89 C 12.1660 -9.8174 -7.3741 0
M  V30 90 N 10.8005 -9.6790 -6.9481 0
M  V30 91 C 13.5058 -7.7316 -7.1458 0
M  V30 92 C 13.1535 -7.3787 -8.5552 0
M  V30 93 C 13.9958 -8.1260 -9.5640 0
M  V30 94 C 14.3137 -6.9012 -6.3658 0
M  V30 95 C 14.7757 -5.6403 -6.9903 0
M  V30 96 N 13.8897 -4.5759 -6.5981 0
M  V30 97 H 17.2535 -6.9997 -3.1179 0
M  V30 98 H 16.9595 -7.9273 -4.7116 0
M  V30 99 H 17.6563 -6.3012 -4.6854 0
M  V30 100 H 15.0772 -6.2773 -3.2161 0
M  V30 101 H 15.6134 -5.3796 -4.6283 0
M  V30 102 H 15.6006 -8.7161 -2.9082 0
M  V30 103 H 14.2234 -9.8175 -2.8820 0
M  V30 104 H 11.9533 -10.8820 -5.2564 0
M  V30 105 H 12.4111 -10.3481 -3.6511 0
M  V30 106 H 14.7961 -11.3474 -5.1562 0
M  V30 107 H 14.0957 -12.0520 -3.6922 0
M  V30 108 H 13.4767 -12.5213 -5.2717 0
M  V30 109 H 12.5308 -10.8655 -7.1791 0
M  V30 110 H 12.2860 -9.6830 -8.4615 0
M  V30 111 H 12.0715 -7.6880 -8.7272 0
M  V30 112 H 13.1258 -6.2845 -8.7110 0
M  V30 113 H 13.4082 -8.7068 -10.3020 0
M  V30 114 H 14.7419 -8.8072 -9.0886 0
M  V30 115 H 14.5572 -7.3666 -10.1862 0
M  V30 116 H 15.7914 -5.3513 -6.6284 0
M  V30 117 H 14.9033 -5.7283 -8.0968 0
M  V30 118 C -2.4191 18.1315 -4.1754 0
M  V30 119 C -2.1951 16.6150 -4.2615 0
M  V30 120 C -1.0246 16.2904 -5.0769 0
M  V30 121 C 0.2425 16.4703 -4.5070 0
M  V30 122 C 0.3160 16.9504 -3.0965 0
M  V30 123 N 0.0000 15.8890 -2.1511 0
M  V30 124 C 1.3522 16.1930 -5.2669 0
M  V30 125 C 2.7125 16.3835 -4.6829 0
M  V30 126 C 3.1574 17.8083 -4.6658 0
M  V30 127 C 1.1998 15.7417 -6.5764 0
M  V30 128 C 2.4191 15.4448 -7.3741 0
M  V30 129 N 2.9820 14.1930 -6.9481 0
M  V30 130 C -0.0572 15.5622 -7.1458 0
M  V30 131 C -0.1866 15.0806 -8.5552 0
M  V30 132 C 0.0394 16.1838 -9.5640 0
M  V30 133 C -1.1803 15.8466 -6.3658 0
M  V30 134 C -2.5032 15.6163 -6.9903 0
M  V30 135 N -2.9820 14.3168 -6.5981 0
M  V30 136 H -2.5649 18.4418 -3.1179 0
M  V30 137 H -1.6146 18.6510 -4.7116 0
M  V30 138 H -3.3712 18.4414 -4.6854 0
M  V30 139 H -2.1023 16.1959 -3.2161 0
M  V30 140 H -3.1478 16.2114 -4.6283 0
M  V30 141 H -0.2519 17.8686 -2.9082 0
M  V30 142 H 1.3905 17.2266 -2.8820 0
M  V30 143 H 3.4474 15.7929 -5.2564 0
M  V30 144 H 2.7562 15.9224 -3.6511 0
M  V30 145 H 2.4291 18.4875 -5.1562 0
M  V30 146 H 3.3895 18.2332 -3.6922 0
M  V30 147 H 4.1054 17.9318 -5.2717 0
M  V30 148 H 3.1444 16.2848 -7.1791 0
M  V30 149 H 2.2427 15.4815 -8.4615 0
M  V30 150 H 0.6223 14.2982 -8.7272 0
M  V30 151 H -1.1204 14.5095 -8.7110 0
M  V30 152 H 0.8362 15.9652 -10.3020 0
M  V30 153 H 0.2563 17.1705 -9.0886 0
M  V30 154 H -0.8989 16.2902 -10.1862 0
M  V30 155 H -3.2614 16.3514 -6.6284 0
M  V30 156 H -2.4908 15.7708 -8.0968 0
M  V30 157 C -6.3607 -3.6723 9.9324 0
M  V30 158 C -7.1075 -4.1032 8.7773 0
M  V30 159 C -6.8750 -3.9769 7.4549 0
M  V30 160 C -7.7876 -4.5007 6.6236 0
M  V30 161 S -7.9319 -4.5917 4.7400 0
M  V30 162 C -9.4943 -5.4817 4.7723 0
M  V30 163 C -10.2300 -5.9063 3.6138 0
M  V30 164 C -9.7247 -5.6069 6.0936 0
M  V30 165 C -8.8008 -5.0767 6.9164 0
M  V30 166 S -8.6553 -4.9850 8.8041 0
M  V30 167 H -5.4459 -3.1517 9.7991 0
M  V30 168 H -5.9546 -3.4541 7.1087 0
M  V30 169 H -11.1495 -6.4297 3.7260 0
M  V30 170 H -10.6465 -6.1305 6.4410 0
M  V30 171 C 6.4790 -3.6916 9.9324 0
M  V30 172 C 7.2256 -4.1228 8.7773 0
M  V30 173 C 6.9982 -3.9876 7.4549 0
M  V30 174 C 7.9088 -4.5149 6.6236 0
M  V30 175 S 8.0580 -4.5973 4.7400 0
M  V30 176 C 9.6127 -5.5007 4.7723 0
M  V30 177 C 10.3483 -5.9255 3.6138 0
M  V30 178 C 9.8380 -5.6347 6.0936 0
M  V30 179 C 8.9163 -5.1009 6.9164 0
M  V30 180 S 8.7658 -5.0178 8.8041 0
M  V30 181 H 5.5690 -3.1626 9.7991 0
M  V30 182 H 6.0833 -3.4553 7.1087 0
M  V30 183 H 11.2630 -6.4572 3.7260 0
M  V30 184 H 10.7544 -6.1679 6.4410 0
M  V30 185 C -0.1183 7.3639 9.9324 0
M  V30 186 C -0.1184 8.2262 8.7773 0
M  V30 187 C -0.1154 7.9616 7.4549 0
M  V30 188 C -0.1166 9.0139 6.6236 0
M  V30 189 S -0.1136 9.1843 4.7400 0
M  V30 190 C -0.1182 10.9824 4.7723 0
M  V30 191 C -0.1183 11.8318 3.6138 0
M  V30 192 C -0.1212 11.2445 6.0936 0
M  V30 193 C -0.1200 10.1793 6.9164 0
M  V30 194 S -0.1230 10.0075 8.8041 0
M  V30 195 H -0.1154 6.3114 9.7991 0
M  V30 196 H -0.1121 6.9031 7.1087 0
M  V30 197 H -0.1212 12.8898 3.7260 0
M  V30 198 H -0.1245 12.3047 6.4410 0
M  V30 199 C -3.9229 -9.7099 -6.7731 0
M  V30 200 C -2.4820 -9.7402 -6.7946 0
M  V30 201 C -1.5550 -8.9408 -6.2286 0
M  V30 202 C -0.2687 -9.2503 -6.4477 0
M  V30 203 S 1.3677 -8.4763 -5.8997 0
M  V30 204 C 2.3794 -9.6898 -6.7588 0
M  V30 205 C 3.8157 -9.7099 -6.7731 0
M  V30 206 C 1.4519 -10.4871 -7.3233 0
M  V30 207 C 0.1651 -10.1649 -7.0952 0
M  V30 208 S -1.4754 -10.9399 -7.6439 0
M  V30 209 H -4.4218 -8.9457 -6.2321 0
M  V30 210 H -1.8834 -8.0722 -5.6137 0
M  V30 211 H 4.3349 -10.4678 -7.3097 0
M  V30 212 H 1.7803 -11.3573 -7.9394 0
M  V30 213 C -10.3169 1.5504 -6.7731 0
M  V30 214 C -9.6229 2.8136 -6.7942 0
M  V30 215 C -8.4603 3.2128 -6.2394 0
M  V30 216 C -8.0878 4.4830 -6.4542 0
M  V30 217 S -6.5928 5.5094 -5.9170 0
M  V30 218 C -7.1481 6.9982 -6.7591 0
M  V30 219 C -6.4476 8.2523 -6.7731 0
M  V30 220 C -8.3091 6.5975 -7.3124 0
M  V30 221 C -8.6708 5.3205 -7.0889 0
M  V30 222 S -10.1688 4.2911 -7.6267 0
M  V30 223 H -9.8980 0.7326 -6.2428 0
M  V30 224 H -7.8650 2.4899 -5.6367 0
M  V30 225 H -6.8508 9.0846 -7.2991 0
M  V30 226 H -8.9059 7.3213 -7.9163 0
M  V30 227 C 10.3705 1.4576 -6.7731 0
M  V30 228 C 9.6763 2.7207 -6.7946 0
M  V30 229 C 8.5204 3.1238 -6.2286 0
M  V30 230 C 8.1453 4.3925 -6.4477 0
M  V30 231 S 6.6568 5.4226 -5.8997 0
M  V30 232 C 7.2019 6.9055 -6.7588 0
M  V30 233 C 6.5012 8.1595 -6.7731 0
M  V30 234 C 8.3561 6.5009 -7.3233 0
M  V30 235 C 8.7205 5.2255 -7.0952 0
M  V30 236 S 10.2120 4.1922 -7.6439 0
M  V30 237 H 9.9581 0.6435 -6.2321 0
M  V30 238 H 7.9325 2.4050 -5.6137 0
M  V30 239 H 6.8979 8.9881 -7.3097 0
M  V30 240 H 8.9455 7.2204 -7.9394 0
M  V30 END ATOM
M  V30 BEGIN BOND
M  V30 1 1 1 2
M  V30 2 1 2 3
M  V30 3 2 3 4
M  V30 4 1 4 5
M  V30 5 1 5 6
M  V30 6 1 4 7
M  V30 7 1 7 8
M  V30 8 1 8 9
M  V30 9 2 7 10
M  V30 10 1 10 11
M  V30 11 1 11 12
M  V30 12 1 10 13
M  V30 13 1 13 14
M  V30 14 1 14 15
M  V30 15 2 13 16
M  V30 16 1 16 17
M  V30 17 1 17 18
M  V30 18 1 16 3
M  V30 19 1 1 19
M  V30 20 1 1 20
M  V30 21 1 1 21
M  V30 22 1 2 22
M  V30 23 1 2 23
M  V30 24 1 5 24
M  V30 25 1 5 25
M  V30 26 1 8 26
M  V30 27 1 8 27
M  V30 28 1 9 28
M  V30 29 1 9 29
M  V30 30 1 9 30
M  V30 31 1 11 31
M  V30 32 1 11 32
M  V30 33 1 14 33
M  V30 34 1 14 34
M  V30 35 1 15 35
M  V30 36 1 15 36
M  V30 37 1 15 37
M  V30 38 1 17 38
M  V30 39 1 17 39
M  V30 40 1 40 41
M  V30 41 1 41 42
M  V30 42 2 42 43
M  V30 43 1 43 44
M  V30 44 1 44 45
M  V30 45 1 43 46
M  V30 46 1 46 47
M  V30 47 1 47 48
M  V30 48 2 46 49
M  V30 49 1 49 50
M  V30 50 1 50 51
M  V30 51 1 49 52
M  V30 52 1 52 53
M  V30 53 1 53 54
M  V30 54 2 52 55
M  V30 55 1 55 56
M  V30 56 1 56 57
M  V30 57 1 55 42
M  V30 58 1 40 58
M  V30 59 1 40 59
M  V30 60 1 40 60
M  V30 61 1 41 61
M  V30 62 1 41 62
M  V30 63 1 44 63
M  V30 64 1 44 64
M  V30 65 1 47 65
M  V30 66 1 47 66
M  V30 67 1 48 67
M  V30 68 1 48 68
M  V30 69 1 48 69
M  V30 70 1 50 70
M  V30 71 1 50 71
M  V30 72 1 53 72
M  V30 73 1 53 73
M  V30 74 1 54 74
M  V30 75 1 54 75
M  V30 76 1 54 76
M  V30 77 1 56 77
M  V30 78 1 56 78
M  V30 79 1 79 80
M  V30 80 1 80 81
M  V30 81 2 81 82
M  V30 82 1 82 83
M  V30 83 1 83 84
M  V30 84 1 82 85
M  V30 85 1 85 86
M  V30 86 1 86 87
M  V30 87 2 85 88
M  V30 88 1 88 89
M  V30 89 1 89 90
M  V30 90 1 88 91
M  V30 91 1 91 92
M  V30 92 1 92 93
M  V30 93 2 91 94
M  V30 94 1 94 95
M  V30 95 1 95 96
M  V30 96 1 94 81
M  V30 97 1 79 97
M  V30 98 1 79 98
M  V30 99 1 79 99
M  V30 100 1 80 100
M  V30 101 1 80 101
M  V30 102 1 83 102
M  V30 103 1 83 103
M  V30 104 1 86 104
M  V30 105 1 86 105
M  V30 106 1 87 106
M  V30 107 1 87 107
M  V30 108 1 87 108
M  V30 109 1 89 109
M  V30 110 1 89 110
M  V30 111 1 92 111
M  V30 112 1 92 112
M  V30 113 1 93 113
M  V30 114 1 93 114
M  V30 115 1 93 115
M  V30 116 1 95 116
M  V30 117 1 95 117
M  V30 118 1 118 119
M  V30 119 1 119 120
M  V30 120 2 120 121
M  V30 121 1 121 122
M  V30 122 1 122 123
M  V30 123 1 121 124
M  V30 124 1 124 125
M  V30 125 1 125 126
M  V30 126 2 124 127
M  V30 127 1 127 128
M  V30 128 1 128 129
M  V30 129 1 127 130
M  V30 130 1 130 131
M  V30 131 1 131 132
M  V30 132 2 130 133
M  V30 133 1 133 134
M  V30 134 1 134 135
M  V30 135 1 133 120
M  V30 136 1 118 136
M  V30 137 1 118 137
M  V30 138 1 118 138
M  V30 139 1 119 139
M  V30 140 1 119 140
M  V30 141 1 122 141
M  V30 142 1 122 142
M  V30 143 1 125 143
M  V30 144 1 125 144
M  V30 145 1 126 145
M  V30 146 1 126 146
M  V30 147 1 126 147
M  V30 148 1 128 148
M  V30 149 1 128 149
M  V30 150 1 131 150
M  V30 151 1 131 151
M  V30 152 1 132 152
M  V30 153 1 132 153
M  V30 154 1 132 154
M  V30 155 1 134 155
M  V30 156 1 134 156
M  V30 157 1 157 158
M  V30 158 2 158 159
M  V30 159 1 159 160
M  V30 160 1 160 161
M  V30 161 1 161 162
M  V30 162 1 162 163
M  V30 163 2 162 164
M  V30 164 1 164 165
M  V30 165 1 165 166
M  V30 166 1 166 158
M  V30 167 2 165 160
M  V30 168 1 157 167
M  V30 169 1 159 168
M  V30 170 1 163 169
M  V30 171 1 164 170
M  V30 172 1 171 172
M  V30 173 2 172 173
M  V30 174 1 173 174
M  V30 175 1 174 175
M  V30 176 1 175 176
M  V30 177 1 176 177
M  V30 178 2 176 178
M  V30 179 1 178 179
M  V30 180 1 179 180
M  V30 181 1 180 172
M  V30 182 2 179 174
M  V30 183 1 171 181
M  V30 184 1 173 182
M  V30 185 1 177 183
M  V30 186 1 178 184
M  V30 187 1 185 186
M  V30 188 2 186 187
M  V30 189 1 187 188
M  V30 190 1 188 189
M  V30 191 1 189 190
M  V30 192 1 190 191
M  V30 193 2 190 192
M  V30 194 1 192 193
M  V30 195 1 193 194
M  V30 196 1 194 186
M  V30 197 2 193 188
M  V30 198 1 185 195
M  V30 199 1 187 196
M  V30 200 1 191 197
M  V30 201 1 192 198
M  V30 202 1 199 200
M  V30 203 2 200 201
M  V30 204 1 201 202
M  V30 205 1 202 203
M  V30 206 1 203 204
M  V30 207 1 204 205
M  V30 208 2 204 206
M  V30 209 1 206 207
M  V30 210 1 207 208
M  V30 211 1 208 200
M  V30 212 2 207 202
M  V30 213 1 199 209
M  V30 214 1 201 210
M  V30 215 1 205 211
M  V30 216 1 206 212
M  V30 217 1 213 214
M  V30 218 2 214 215
M  V30 219 1 215 216
M  V30 220 1 216 217
M  V30 221 1 217 218
M  V30 222 1 218 219
M  V30 223 2 218 220
M  V30 224 1 220 221
M  V30 225 1 221 222
M  V30 226 1 222 214
M  V30 227 2 221 216
M  V30 228 1 213 223
M  V30 229 1 215 224
M  V30 230 1 219 225
M  V30 231 1 220 226
M  V30 232 1 227 228
M  V30 233 2 228 229
M  V30 234 1 229 230
M  V30 235 1 230 231
M  V30 236 1 231 232
M  V30 237 1 232 233
M  V30 238 2 232 234
M  V30 239 1 234 235
M  V30 240 1 235 236
M  V30 241 1 236 228
M  V30 242 2 235 230
M  V30 243 1 227 237
M  V30 244 1 229 238
M  V30 245 1 233 239
M  V30 246 1 234 240
M  V30 247 2 6 157
M  V30 248 2 45 163
M  V30 249 2 12 171
M  V30 250 2 84 177
M  V30 251 2 18 185
M  V30 252 2 123 191
M  V30 253 2 57 199
M  V30 254 2 90 205
M  V30 255 2 51 213
M  V30 256 2 135 219
M  V30 257 2 96 227
M  V30 258 2 129 233
M  V30 END BOND
M  V30 END CTAB
M  END

$$$$
