
     RDKit          3D

  0  0  0  0  0  0  0  0  0  0999 V3000
M  V30 BEGIN CTAB
M  V30 COUNTS 600 690 0 0 0
M  V30 BEGIN ATOM
M  V30 1 N 25.5191 -2.4244 11.2458 0
M  V30 2 C 25.7780 -1.1811 10.5681 0
M  V30 3 N 25.5486 -0.0128 11.1687 0
M  V30 4 C 25.7768 1.1804 10.5711 0
M  V30 5 N 25.5210 2.4114 11.2410 0
M  V30 6 N 26.2567 1.1302 9.3149 0
M  V30 7 C 26.5071 -0.0158 8.6593 0
M  V30 8 N 27.0157 0.0130 7.3279 0
M  V30 9 N 26.2574 -1.1663 9.3131 0
M  V30 10 N -25.5191 -2.4244 11.2458 0
M  V30 11 C -25.7739 -1.1745 10.5788 0
M  V30 12 N -26.2496 -1.1471 9.3334 0
M  V30 13 C -26.5042 0.0035 8.6668 0
M  V30 14 N -27.0126 -0.0020 7.3360 0
M  V30 15 N -26.2488 1.1429 9.3356 0
M  V30 16 C -25.7694 1.1778 10.5905 0
M  V30 17 N -25.5241 2.4264 11.2329 0
M  V30 18 N -25.5388 -0.0037 11.1944 0
M  V30 19 N -27.0175 0.0000 -7.3230 0
M  V30 20 C -26.5039 0.0067 -8.6677 0
M  V30 21 N -26.2575 -1.1343 -9.3126 0
M  V30 22 C -25.7747 -1.1770 -10.5768 0
M  V30 23 N -25.5222 -2.4134 -11.2377 0
M  V30 24 N -25.5503 0.0128 -11.1642 0
M  V30 25 C -25.7792 1.1936 -10.5649 0
M  V30 26 N -25.5160 2.4134 -11.2539 0
M  V30 27 N -26.2596 1.1627 -9.3072 0
M  V30 28 N 27.0175 0.0000 -7.3230 0
M  V30 29 C 26.5039 -0.0067 -8.6677 0
M  V30 30 N 26.2575 1.1343 -9.3126 0
M  V30 31 C 25.7747 1.1770 -10.5768 0
M  V30 32 N 25.5222 2.4134 -11.2377 0
M  V30 33 N 25.5503 -0.0128 -11.1642 0
M  V30 34 C 25.7792 -1.1936 -10.5649 0
M  V30 35 N 25.5160 -2.4134 -11.2539 0
M  V30 36 N 26.2596 -1.1627 -9.3072 0
M  V30 37 N 11.2458 25.5191 2.4244 0
M  V30 38 C 10.5788 25.7739 1.1745 0
M  V30 39 N 9.3334 26.2496 1.1471 0
M  V30 40 C 8.6668 26.5042 -0.0035 0
M  V30 41 N 7.3360 27.0126 0.0020 0
M  V30 42 N 9.3356 26.2488 -1.1429 0
M  V30 43 C 10.5905 25.7694 -1.1778 0
M  V30 44 N 11.2329 25.5241 -2.4264 0
M  V30 45 N 11.1944 25.5388 0.0037 0
M  V30 46 N 7.3230 -27.0175 0.0000 0
M  V30 47 C 8.6677 -26.5039 -0.0067 0
M  V30 48 N 9.3126 -26.2575 1.1343 0
M  V30 49 C 10.5768 -25.7747 1.1770 0
M  V30 50 N 11.2377 -25.5222 2.4134 0
M  V30 51 N 11.1642 -25.5503 -0.0128 0
M  V30 52 C 10.5649 -25.7792 -1.1936 0
M  V30 53 N 11.2539 -25.5160 -2.4134 0
M  V30 54 N 9.3072 -26.2596 -1.1627 0
M  V30 55 N -7.3230 -27.0175 0.0000 0
M  V30 56 C -8.6677 -26.5039 0.0067 0
M  V30 57 N -9.3126 -26.2575 -1.1343 0
M  V30 58 C -10.5768 -25.7747 -1.1770 0
M  V30 59 N -11.2377 -25.5222 -2.4134 0
M  V30 60 N -11.1642 -25.5503 0.0128 0
M  V30 61 C -10.5649 -25.7792 1.1936 0
M  V30 62 N -11.2539 -25.5160 2.4134 0
M  V30 63 N -9.3072 -26.2596 1.1627 0
M  V30 64 N -7.3230 27.0175 -0.0000 0
M  V30 65 C -8.6677 26.5039 -0.0067 0
M  V30 66 N -9.3126 26.2575 1.1343 0
M  V30 67 C -10.5768 25.7747 1.1770 0
M  V30 68 N -11.2377 25.5222 2.4134 0
M  V30 69 N -11.1642 25.5503 -0.0128 0
M  V30 70 C -10.5649 25.7792 -1.1936 0
M  V30 71 N -11.2539 25.5160 -2.4134 0
M  V30 72 N -9.3072 26.2596 -1.1627 0
M  V30 73 N 0.0000 7.3230 27.0175 0
M  V30 74 C 0.0067 8.6677 26.5039 0
M  V30 75 N -1.1343 9.3126 26.2575 0
M  V30 76 C -1.1770 10.5768 25.7747 0
M  V30 77 N -2.4134 11.2377 25.5222 0
M  V30 78 N 0.0128 11.1642 25.5503 0
M  V30 79 C 1.1936 10.5649 25.7792 0
M  V30 80 N 2.4134 11.2539 25.5160 0
M  V30 81 N 1.1627 9.3072 26.2596 0
M  V30 82 N 0.0000 7.3230 -27.0175 0
M  V30 83 C -0.0067 8.6677 -26.5039 0
M  V30 84 N 1.1343 9.3126 -26.2575 0
M  V30 85 C 1.1770 10.5768 -25.7747 0
M  V30 86 N 2.4134 11.2377 -25.5222 0
M  V30 87 N -0.0128 11.1642 -25.5503 0
M  V30 88 C -1.1936 10.5649 -25.7792 0
M  V30 89 N -2.4134 11.2539 -25.5160 0
M  V30 90 N -1.1627 9.3072 -26.2596 0
M  V30 91 N 0.0000 -7.3230 -27.0175 0
M  V30 92 C 0.0067 -8.6677 -26.5039 0
M  V30 93 N -1.1343 -9.3126 -26.2575 0
M  V30 94 C -1.1770 -10.5768 -25.7747 0
M  V30 95 N -2.4134 -11.2377 -25.5222 0
M  V30 96 N 0.0128 -11.1642 -25.5503 0
M  V30 97 C 1.1936 -10.5649 -25.7792 0
M  V30 98 N 2.4134 -11.2539 -25.5160 0
M  V30 99 N 1.1627 -9.3072 -26.2596 0
M  V30 100 N 0.0000 -7.3230 27.0175 0
M  V30 101 C -0.0067 -8.6677 26.5039 0
M  V30 102 N 1.1343 -9.3126 26.2575 0
M  V30 103 C 1.1770 -10.5768 25.7747 0
M  V30 104 N 2.4134 -11.2377 25.5222 0
M  V30 105 N -0.0128 -11.1642 25.5503 0
M  V30 106 C -1.1936 -10.5649 25.7792 0
M  V30 107 N -2.4134 -11.2539 25.5160 0
M  V30 108 N -1.1627 -9.3072 26.2596 0
M  V30 109 N 18.1961 14.2733 15.7717 0
M  V30 110 C 17.1103 15.2058 15.9250 0
M  V30 111 N 16.2360 15.0810 16.9242 0
M  V30 112 C 15.2001 15.9331 17.1079 0
M  V30 113 N 14.2833 15.7716 18.1863 0
M  V30 114 N 15.0925 16.9339 16.2148 0
M  V30 115 C 15.9422 17.1102 15.1887 0
M  V30 116 N 15.7617 18.1962 14.2832 0
M  V30 117 N 16.9502 16.2257 15.0653 0
M  V30 118 N 18.1961 -14.2733 15.7717 0
M  V30 119 C 17.1062 -15.1992 15.9358 0
M  V30 120 N 16.9370 -16.2152 15.0889 0
M  V30 121 C 15.9275 -17.1101 15.2036 0
M  V30 122 N 15.7749 -18.1850 14.2813 0
M  V30 123 N 15.0846 -16.9211 16.2354 0
M  V30 124 C 15.2045 -15.9166 17.1200 0
M  V30 125 N 14.2702 -15.7828 18.1882 0
M  V30 126 N 16.2316 -15.0630 16.9465 0
M  V30 127 N -18.1961 -14.2733 15.7717 0
M  V30 128 C -17.1103 -15.2058 15.9250 0
M  V30 129 N -16.2360 -15.0810 16.9242 0
M  V30 130 C -15.2001 -15.9331 17.1079 0
M  V30 131 N -14.2833 -15.7716 18.1863 0
M  V30 132 N -15.0925 -16.9339 16.2148 0
M  V30 133 C -15.9422 -17.1102 15.1887 0
M  V30 134 N -15.7617 -18.1962 14.2832 0
M  V30 135 N -16.9502 -16.2257 15.0653 0
M  V30 136 N -18.1961 14.2733 15.7717 0
M  V30 137 C -17.1062 15.1992 15.9358 0
M  V30 138 N -16.9370 16.2152 15.0889 0
M  V30 139 C -15.9275 17.1101 15.2036 0
M  V30 140 N -15.7749 18.1850 14.2813 0
M  V30 141 N -15.0846 16.9211 16.2354 0
M  V30 142 C -15.2045 15.9166 17.1200 0
M  V30 143 N -14.2702 15.7828 18.1882 0
M  V30 144 N -16.2316 15.0630 16.9465 0
M  V30 145 N -18.1961 14.2733 -15.7717 0
M  V30 146 C -17.1103 15.2058 -15.9250 0
M  V30 147 N -16.2360 15.0810 -16.9242 0
M  V30 148 C -15.2001 15.9331 -17.1079 0
M  V30 149 N -14.2833 15.7716 -18.1863 0
M  V30 150 N -15.0925 16.9339 -16.2148 0
M  V30 151 C -15.9422 17.1102 -15.1887 0
M  V30 152 N -15.7617 18.1962 -14.2832 0
M  V30 153 N -16.9502 16.2257 -15.0653 0
M  V30 154 N 18.1961 14.2733 -15.7717 0
M  V30 155 C 17.1062 15.1992 -15.9358 0
M  V30 156 N 16.9370 16.2152 -15.0889 0
M  V30 157 C 15.9275 17.1101 -15.2036 0
M  V30 158 N 15.7749 18.1850 -14.2813 0
M  V30 159 N 15.0846 16.9211 -16.2354 0
M  V30 160 C 15.2045 15.9166 -17.1200 0
M  V30 161 N 14.2702 15.7828 -18.1882 0
M  V30 162 N 16.2316 15.0630 -16.9465 0
M  V30 163 N 18.1961 -14.2733 -15.7717 0
M  V30 164 C 17.1103 -15.2058 -15.9250 0
M  V30 165 N 16.2360 -15.0810 -16.9242 0
M  V30 166 C 15.2001 -15.9331 -17.1079 0
M  V30 167 N 14.2833 -15.7716 -18.1863 0
M  V30 168 N 15.0925 -16.9339 -16.2148 0
M  V30 169 C 15.9422 -17.1102 -15.1887 0
M  V30 170 N 15.7617 -18.1962 -14.2832 0
M  V30 171 N 16.9502 -16.2257 -15.0653 0
M  V30 172 N -18.1961 -14.2733 -15.7717 0
M  V30 173 C -17.1062 -15.1992 -15.9358 0
M  V30 174 N -16.9370 -16.2152 -15.0889 0
M  V30 175 C -15.9275 -17.1101 -15.2036 0
M  V30 176 N -15.7749 -18.1850 -14.2813 0
M  V30 177 N -15.0846 -16.9211 -16.2354 0
M  V30 178 C -15.2045 -15.9166 -17.1200 0
M  V30 179 N -14.2702 -15.7828 -18.1882 0
M  V30 180 N -16.2316 -15.0630 -16.9465 0
M  V30 181 C 23.7923 -5.2185 12.3131 0
M  V30 182 C 23.1018 -6.3956 12.7771 0
M  V30 183 C 21.8480 -6.8463 12.5683 0
M  V30 184 C 21.5108 -8.0028 13.1575 0
M  V30 185 S 19.9274 -9.0369 13.1836 0
M  V30 186 C 20.6212 -10.3096 14.2481 0
M  V30 187 C 19.9230 -11.4792 14.7044 0
M  V30 188 C 21.8731 -9.8578 14.4554 0
M  V30 189 C 22.1981 -8.6961 13.8582 0
M  V30 190 S 23.7845 -7.6590 13.8314 0
M  V30 191 H 23.2862 -4.5289 11.6855 0
M  V30 192 H 21.1535 -6.2555 11.9287 0
M  V30 193 H 20.4126 -12.1830 15.3344 0
M  V30 194 H 22.5692 -10.4492 15.0960 0
M  V30 195 C 23.7932 5.2120 12.3106 0
M  V30 196 C 23.1028 6.3894 12.7743 0
M  V30 197 C 21.8448 6.8332 12.5765 0
M  V30 198 C 21.5093 7.9924 13.1615 0
M  V30 199 S 19.9218 9.0199 13.1983 0
M  V30 200 C 20.6220 10.3030 14.2459 0
M  V30 201 C 19.9239 11.4727 14.7020 0
M  V30 202 C 21.8781 9.8579 14.4423 0
M  V30 203 C 22.2014 8.6935 13.8495 0
M  V30 204 S 23.7919 7.6630 13.8120 0
M  V30 205 H 23.2831 4.5158 11.6936 0
M  V30 206 H 21.1458 6.2350 11.9489 0
M  V30 207 H 20.4175 12.1829 15.3216 0
M  V30 208 H 22.5787 10.4567 15.0709 0
M  V30 209 C 27.0166 0.0065 3.8717 0
M  V30 210 C 27.0537 0.0063 2.4308 0
M  V30 211 C 26.0742 0.0129 1.5038 0
M  V30 212 C 26.4534 0.0103 0.2175 0
M  V30 213 S 25.5051 0.0167 -1.4189 0
M  V30 214 C 26.9918 0.0067 -2.4306 0
M  V30 215 C 27.0166 0.0065 -3.8669 0
M  V30 216 C 27.9687 0.0001 -1.5031 0
M  V30 217 C 27.5740 0.0028 -0.2163 0
M  V30 218 S 28.5236 -0.0036 1.4242 0
M  V30 219 H 26.0803 0.0128 4.3706 0
M  V30 220 H 25.0100 0.0200 1.8322 0
M  V30 221 H 27.9452 0.0003 -4.3861 0
M  V30 222 H 29.0349 -0.0071 -1.8315 0
M  V30 223 C -23.7923 -5.2185 12.3131 0
M  V30 224 C -23.1019 -6.3959 12.7767 0
M  V30 225 C -21.8439 -6.8397 12.5789 0
M  V30 226 C -21.5083 -7.9989 13.1639 0
M  V30 227 S -19.9209 -9.0263 13.2007 0
M  V30 228 C -20.6211 -10.3095 14.2484 0
M  V30 229 C -19.9230 -11.4792 14.7044 0
M  V30 230 C -21.8772 -9.8644 14.4447 0
M  V30 231 C -22.2005 -8.7000 13.8519 0
M  V30 232 S -23.7910 -7.6695 13.8144 0
M  V30 233 H -23.2822 -4.5223 11.6960 0
M  V30 234 H -21.1449 -6.2415 11.9514 0
M  V30 235 H -20.4166 -12.1895 15.3239 0
M  V30 236 H -22.5778 -10.4633 15.0732 0
M  V30 237 C -23.7948 5.2195 12.3066 0
M  V30 238 C -23.1042 6.3966 12.7706 0
M  V30 239 C -21.8504 6.8472 12.5620 0
M  V30 240 C -21.5132 8.0037 13.1512 0
M  V30 241 S -19.9298 9.0377 13.1775 0
M  V30 242 C -20.6236 10.3106 14.2416 0
M  V30 243 C -19.9254 11.4802 14.6980 0
M  V30 244 C -21.8757 9.8589 14.4488 0
M  V30 245 C -22.2006 8.6972 13.8516 0
M  V30 246 S -23.7871 7.6602 13.8246 0
M  V30 247 H -23.2886 4.5298 11.6792 0
M  V30 248 H -21.1559 6.2562 11.9226 0
M  V30 249 H -20.4151 12.1841 15.3278 0
M  V30 250 H -22.5718 10.4505 15.0891 0
M  V30 251 C -27.0150 -0.0010 3.8758 0
M  V30 252 C -27.0522 -0.0008 2.4348 0
M  V30 253 C -26.0727 -0.0076 1.5079 0
M  V30 254 C -26.4519 -0.0049 0.2216 0
M  V30 255 S -25.5035 -0.0115 -1.4148 0
M  V30 256 C -26.9903 -0.0012 -2.4265 0
M  V30 257 C -27.0150 -0.0010 -3.8629 0
M  V30 258 C -27.9672 0.0056 -1.4990 0
M  V30 259 C -27.5725 0.0028 -0.2123 0
M  V30 260 S -28.5220 0.0094 1.4283 0
M  V30 261 H -26.0787 -0.0075 4.3746 0
M  V30 262 H -25.0085 -0.0149 1.8363 0
M  V30 263 H -27.9436 0.0054 -4.3821 0
M  V30 264 H -29.0333 0.0130 -1.8275 0
M  V30 265 C -23.7938 -5.2130 -12.3090 0
M  V30 266 C -23.1033 -6.3901 -12.7730 0
M  V30 267 C -21.8495 -6.8408 -12.5643 0
M  V30 268 C -21.5123 -7.9973 -13.1535 0
M  V30 269 S -19.9289 -9.0314 -13.1796 0
M  V30 270 C -20.6227 -10.3041 -14.2440 0
M  V30 271 C -19.9245 -11.4737 -14.7004 0
M  V30 272 C -21.8747 -9.8523 -14.4513 0
M  V30 273 C -22.1996 -8.6907 -13.8541 0
M  V30 274 S -23.7860 -7.6536 -13.8273 0
M  V30 275 H -23.2878 -4.5234 -11.6814 0
M  V30 276 H -21.1551 -6.2499 -11.9247 0
M  V30 277 H -20.4142 -12.1775 -15.3303 0
M  V30 278 H -22.5707 -10.4438 -15.0919 0
M  V30 279 C -23.7907 5.2130 -12.3171 0
M  V30 280 C -23.1004 6.3904 -12.7808 0
M  V30 281 C -21.8424 6.8343 -12.5828 0
M  V30 282 C -21.5068 7.9934 -13.1678 0
M  V30 283 S -19.9194 9.0210 -13.2045 0
M  V30 284 C -20.6195 10.3040 -14.2524 0
M  V30 285 C -19.9214 11.4737 -14.7085 0
M  V30 286 C -21.8756 9.8588 -14.4489 0
M  V30 287 C -22.1989 8.6945 -13.8561 0
M  V30 288 S -23.7893 7.6639 -13.8187 0
M  V30 289 H -23.2807 4.5170 -11.6999 0
M  V30 290 H -21.1435 6.2362 -11.9550 0
M  V30 291 H -20.4150 12.1839 -15.3282 0
M  V30 292 H -22.5762 10.4575 -15.0777 0
M  V30 293 C 23.7907 -5.2130 -12.3171 0
M  V30 294 C 23.1004 -6.3904 -12.7808 0
M  V30 295 C 21.8424 -6.8343 -12.5828 0
M  V30 296 C 21.5068 -7.9934 -13.1678 0
M  V30 297 S 19.9194 -9.0210 -13.2045 0
M  V30 298 C 20.6195 -10.3040 -14.2524 0
M  V30 299 C 19.9214 -11.4737 -14.7085 0
M  V30 300 C 21.8756 -9.8588 -14.4489 0
M  V30 301 C 22.1989 -8.6945 -13.8561 0
M  V30 302 S 23.7893 -7.6639 -13.8187 0
M  V30 303 H 23.2807 -4.5170 -11.6999 0
M  V30 304 H 21.1435 -6.2362 -11.9550 0
M  V30 305 H 20.4150 -12.1839 -15.3282 0
M  V30 306 H 22.5762 -10.4575 -15.0777 0
M  V30 307 C 23.7938 5.2130 -12.3090 0
M  V30 308 C 23.1033 6.3901 -12.7730 0
M  V30 309 C 21.8495 6.8408 -12.5643 0
M  V30 310 C 21.5123 7.9973 -13.1535 0
M  V30 311 S 19.9289 9.0314 -13.1796 0
M  V30 312 C 20.6227 10.3041 -14.2440 0
M  V30 313 C 19.9245 11.4737 -14.7004 0
M  V30 314 C 21.8747 9.8523 -14.4513 0
M  V30 315 C 22.1996 8.6907 -13.8541 0
M  V30 316 S 23.7860 7.6536 -13.8273 0
M  V30 317 H 23.2878 4.5234 -11.6814 0
M  V30 318 H 21.1551 6.2499 -11.9247 0
M  V30 319 H 20.4142 12.1775 -15.3303 0
M  V30 320 H 22.5707 10.4438 -15.0919 0
M  V30 321 C 12.3081 23.7923 5.2234 0
M  V30 322 C 12.7717 23.1020 6.4008 0
M  V30 323 C 12.5742 21.8439 6.8445 0
M  V30 324 C 13.1590 21.5083 8.0037 0
M  V30 325 S 13.1960 19.9208 9.0311 0
M  V30 326 C 14.2434 20.6211 10.3144 0
M  V30 327 C 14.6995 19.9230 11.4841 0
M  V30 328 C 14.4395 21.8773 9.8694 0
M  V30 329 C 13.8468 22.2006 8.7050 0
M  V30 330 S 13.8091 23.7911 7.6746 0
M  V30 331 H 11.6913 23.2822 4.5271 0
M  V30 332 H 11.9468 21.1448 6.2461 0
M  V30 333 H 15.3188 20.4167 12.1945 0
M  V30 334 H 15.0679 22.5781 10.4684 0
M  V30 335 C 3.8758 27.0150 0.0010 0
M  V30 336 C 2.4348 27.0522 0.0008 0
M  V30 337 C 1.5079 26.0727 0.0076 0
M  V30 338 C 0.2216 26.4519 0.0049 0
M  V30 339 S -1.4148 25.5035 0.0115 0
M  V30 340 C -2.4265 26.9903 0.0012 0
M  V30 341 C -3.8629 27.0150 0.0010 0
M  V30 342 C -1.4990 27.9672 -0.0056 0
M  V30 343 C -0.2123 27.5725 -0.0028 0
M  V30 344 S 1.4283 28.5220 -0.0094 0
M  V30 345 H 4.3746 26.0787 0.0075 0
M  V30 346 H 1.8363 25.0085 0.0149 0
M  V30 347 H -4.3821 27.9436 -0.0054 0
M  V30 348 H -1.8275 29.0333 -0.0130 0
M  V30 349 C 12.3082 23.7892 -5.2235 0
M  V30 350 C 12.7722 23.0987 -6.4006 0
M  V30 351 C 12.5636 21.8448 -6.8512 0
M  V30 352 C 13.1527 21.5077 -8.0077 0
M  V30 353 S 13.1790 19.9242 -9.0417 0
M  V30 354 C 14.2432 20.6181 -10.3146 0
M  V30 355 C 14.6996 19.9199 -11.4842 0
M  V30 356 C 14.4504 21.8701 -9.8628 0
M  V30 357 C 13.8532 22.1950 -8.7012 0
M  V30 358 S 13.8263 23.7815 -7.6642 0
M  V30 359 H 11.6807 23.2831 -4.5338 0
M  V30 360 H 11.9242 21.1503 -6.2602 0
M  V30 361 H 15.3294 20.4096 -12.1881 0
M  V30 362 H 15.0908 22.5662 -10.4544 0
M  V30 363 C 3.8693 -27.0175 0.0000 0
M  V30 364 C 2.4284 -27.0546 0.0002 0
M  V30 365 C 1.5014 -26.0751 -0.0066 0
M  V30 366 C 0.2151 -26.4543 -0.0039 0
M  V30 367 S -1.4213 -25.5060 -0.0106 0
M  V30 368 C -2.4330 -26.9928 -0.0002 0
M  V30 369 C -3.8693 -27.0175 0.0000 0
M  V30 370 C -1.5055 -27.9696 0.0066 0
M  V30 371 C -0.2187 -27.5750 0.0039 0
M  V30 372 S 1.4218 -28.5245 0.0105 0
M  V30 373 H 4.3682 -26.0812 -0.0065 0
M  V30 374 H 1.8298 -25.0110 -0.0140 0
M  V30 375 H -4.3885 -27.9461 0.0065 0
M  V30 376 H -1.8339 -29.0358 0.0141 0
M  V30 377 C 12.3121 -23.7908 -5.2179 0
M  V30 378 C 12.7758 -23.1004 -6.3953 0
M  V30 379 C 12.5780 -21.8424 -6.8392 0
M  V30 380 C 13.1630 -21.5068 -7.9983 0
M  V30 381 S 13.1998 -19.9194 -9.0258 0
M  V30 382 C 14.2474 -20.6196 -10.3089 0
M  V30 383 C 14.7035 -19.9215 -11.4787 0
M  V30 384 C 14.4438 -21.8757 -9.8638 0
M  V30 385 C 13.8510 -22.1990 -8.6995 0
M  V30 386 S 13.8135 -23.7895 -7.6690 0
M  V30 387 H 11.6951 -23.2807 -4.5218 0
M  V30 388 H 11.9505 -21.1434 -6.2409 0
M  V30 389 H 15.3230 -20.4151 -12.1889 0
M  V30 390 H 15.0723 -22.5764 -10.4627 0
M  V30 391 C 12.3106 -23.7883 5.2170 0
M  V30 392 C 12.7746 -23.0978 6.3941 0
M  V30 393 C 12.5658 -21.8440 6.8448 0
M  V30 394 C 13.1550 -21.5068 8.0013 0
M  V30 395 S 13.1812 -19.9234 9.0354 0
M  V30 396 C 14.2456 -20.6172 10.3081 0
M  V30 397 C 14.7020 -19.9190 11.4777 0
M  V30 398 C 14.4529 -21.8691 9.8562 0
M  V30 399 C 13.8557 -22.1941 8.6946 0
M  V30 400 S 13.8289 -23.7805 7.6575 0
M  V30 401 H 11.6830 -23.2822 4.5274 0
M  V30 402 H 11.9262 -21.1495 6.2539 0
M  V30 403 H 15.3319 -20.4086 12.1815 0
M  V30 404 H 15.0935 -22.5652 10.4477 0
M  V30 405 C -12.3121 -23.7908 5.2179 0
M  V30 406 C -12.7758 -23.1004 6.3953 0
M  V30 407 C -12.5780 -21.8424 6.8392 0
M  V30 408 C -13.1630 -21.5068 7.9983 0
M  V30 409 S -13.1998 -19.9194 9.0258 0
M  V30 410 C -14.2474 -20.6196 10.3089 0
M  V30 411 C -14.7035 -19.9215 11.4787 0
M  V30 412 C -14.4438 -21.8757 9.8638 0
M  V30 413 C -13.8510 -22.1990 8.6995 0
M  V30 414 S -13.8135 -23.7895 7.6690 0
M  V30 415 H -11.6951 -23.2807 4.5218 0
M  V30 416 H -11.9505 -21.1434 6.2409 0
M  V30 417 H -15.3230 -20.4151 12.1889 0
M  V30 418 H -15.0723 -22.5764 10.4627 0
M  V30 419 C -12.3106 -23.7883 -5.2170 0
M  V30 420 C -12.7746 -23.0978 -6.3941 0
M  V30 421 C -12.5658 -21.8440 -6.8448 0
M  V30 422 C -13.1550 -21.5068 -8.0013 0
M  V30 423 S -13.1812 -19.9234 -9.0354 0
M  V30 424 C -14.2456 -20.6172 -10.3081 0
M  V30 425 C -14.7020 -19.9190 -11.4777 0
M  V30 426 C -14.4529 -21.8691 -9.8562 0
M  V30 427 C -13.8557 -22.1941 -8.6946 0
M  V30 428 S -13.8289 -23.7805 -7.6575 0
M  V30 429 H -11.6830 -23.2822 -4.5274 0
M  V30 430 H -11.9262 -21.1495 -6.2539 0
M  V30 431 H -15.3319 -20.4086 -12.1815 0
M  V30 432 H -15.0935 -22.5652 -10.4477 0
M  V30 433 C -12.3106 23.7883 5.2170 0
M  V30 434 C -12.7746 23.0978 6.3941 0
M  V30 435 C -12.5658 21.8440 6.8448 0
M  V30 436 C -13.1550 21.5068 8.0013 0
M  V30 437 S -13.1812 19.9234 9.0354 0
M  V30 438 C -14.2456 20.6172 10.3081 0
M  V30 439 C -14.7020 19.9190 11.4777 0
M  V30 440 C -14.4529 21.8691 9.8562 0
M  V30 441 C -13.8557 22.1941 8.6946 0
M  V30 442 S -13.8289 23.7805 7.6575 0
M  V30 443 H -11.6830 23.2822 4.5274 0
M  V30 444 H -11.9262 21.1495 6.2539 0
M  V30 445 H -15.3319 20.4086 12.1815 0
M  V30 446 H -15.0935 22.5652 10.4477 0
M  V30 447 C -12.3121 23.7908 -5.2179 0
M  V30 448 C -12.7758 23.1004 -6.3953 0
M  V30 449 C -12.5780 21.8424 -6.8392 0
M  V30 450 C -13.1630 21.5068 -7.9983 0
M  V30 451 S -13.1998 19.9194 -9.0258 0
M  V30 452 C -14.2474 20.6196 -10.3089 0
M  V30 453 C -14.7035 19.9215 -11.4787 0
M  V30 454 C -14.4438 21.8757 -9.8638 0
M  V30 455 C -13.8510 22.1990 -8.6995 0
M  V30 456 S -13.8135 23.7895 -7.6690 0
M  V30 457 H -11.6951 23.2807 -4.5218 0
M  V30 458 H -11.9505 21.1434 -6.2409 0
M  V30 459 H -15.3230 20.4151 -12.1889 0
M  V30 460 H -15.0723 22.5764 -10.4627 0
M  V30 461 C 0.0000 3.8693 27.0175 0
M  V30 462 C -0.0002 2.4284 27.0546 0
M  V30 463 C 0.0066 1.5014 26.0751 0
M  V30 464 C 0.0039 0.2151 26.4543 0
M  V30 465 S 0.0106 -1.4213 25.5060 0
M  V30 466 C 0.0002 -2.4330 26.9928 0
M  V30 467 C 0.0000 -3.8693 27.0175 0
M  V30 468 C -0.0066 -1.5055 27.9696 0
M  V30 469 C -0.0039 -0.2187 27.5750 0
M  V30 470 S -0.0105 1.4218 28.5245 0
M  V30 471 H 0.0065 4.3682 26.0812 0
M  V30 472 H 0.0140 1.8298 25.0110 0
M  V30 473 H -0.0065 -4.3885 27.9461 0
M  V30 474 H -0.0141 -1.8339 29.0358 0
M  V30 475 C 5.2180 12.3171 23.7858 0
M  V30 476 C 6.3953 12.7807 23.0954 0
M  V30 477 C 6.8393 12.5828 21.8375 0
M  V30 478 C 7.9984 13.1678 21.5019 0
M  V30 479 S 9.0260 13.2045 19.9145 0
M  V30 480 C 10.3089 14.2524 20.6146 0
M  V30 481 C 11.4787 14.7084 19.9165 0
M  V30 482 C 9.8638 14.4488 21.8707 0
M  V30 483 C 8.6995 13.8560 22.1940 0
M  V30 484 S 7.6689 13.8186 23.7844 0
M  V30 485 H 4.5219 11.6999 23.2758 0
M  V30 486 H 6.2412 11.9550 21.1385 0
M  V30 487 H 12.1889 15.3281 20.4101 0
M  V30 488 H 10.4626 15.0776 22.5713 0
M  V30 489 C -5.2114 12.3146 23.7899 0
M  V30 490 C -6.3885 12.7786 23.0993 0
M  V30 491 C -6.8393 12.5696 21.8456 0
M  V30 492 C -7.9958 13.1589 21.5084 0
M  V30 493 S -9.0300 13.1849 19.9251 0
M  V30 494 C -10.3026 14.2496 20.6188 0
M  V30 495 C -11.4721 14.7059 19.9205 0
M  V30 496 C -9.8506 14.4571 21.8706 0
M  V30 497 C -8.6890 13.8598 22.1956 0
M  V30 498 S -7.6518 13.8331 23.7820 0
M  V30 499 H -4.5219 11.6868 23.2839 0
M  V30 500 H -6.2486 11.9299 21.1513 0
M  V30 501 H -12.1758 15.3361 20.4101 0
M  V30 502 H -10.4419 15.0978 22.5666 0
M  V30 503 C 0.0000 3.8693 -27.0175 0
M  V30 504 C 0.0002 2.4284 -27.0546 0
M  V30 505 C -0.0066 1.5014 -26.0751 0
M  V30 506 C -0.0039 0.2151 -26.4543 0
M  V30 507 S -0.0106 -1.4213 -25.5060 0
M  V30 508 C -0.0002 -2.4330 -26.9928 0
M  V30 509 C 0.0000 -3.8693 -27.0175 0
M  V30 510 C 0.0066 -1.5055 -27.9696 0
M  V30 511 C 0.0039 -0.2187 -27.5750 0
M  V30 512 S 0.0105 1.4218 -28.5245 0
M  V30 513 H -0.0065 4.3682 -26.0812 0
M  V30 514 H -0.0140 1.8298 -25.0110 0
M  V30 515 H 0.0065 -4.3885 -27.9461 0
M  V30 516 H 0.0141 -1.8339 -29.0358 0
M  V30 517 C 5.2114 12.3146 -23.7899 0
M  V30 518 C 6.3885 12.7786 -23.0993 0
M  V30 519 C 6.8393 12.5696 -21.8456 0
M  V30 520 C 7.9958 13.1589 -21.5084 0
M  V30 521 S 9.0300 13.1849 -19.9251 0
M  V30 522 C 10.3026 14.2496 -20.6188 0
M  V30 523 C 11.4721 14.7059 -19.9205 0
M  V30 524 C 9.8506 14.4571 -21.8706 0
M  V30 525 C 8.6890 13.8598 -22.1956 0
M  V30 526 S 7.6518 13.8331 -23.7820 0
M  V30 527 H 4.5219 11.6868 -23.2839 0
M  V30 528 H 6.2486 11.9299 -21.1513 0
M  V30 529 H 12.1758 15.3361 -20.4101 0
M  V30 530 H 10.4419 15.0978 -22.5666 0
M  V30 531 C -5.2180 12.3171 -23.7858 0
M  V30 532 C -6.3953 12.7807 -23.0954 0
M  V30 533 C -6.8393 12.5828 -21.8375 0
M  V30 534 C -7.9984 13.1678 -21.5019 0
M  V30 535 S -9.0260 13.2045 -19.9145 0
M  V30 536 C -10.3089 14.2524 -20.6146 0
M  V30 537 C -11.4787 14.7084 -19.9165 0
M  V30 538 C -9.8638 14.4488 -21.8707 0
M  V30 539 C -8.6995 13.8560 -22.1940 0
M  V30 540 S -7.6689 13.8186 -23.7844 0
M  V30 541 H -4.5219 11.6999 -23.2758 0
M  V30 542 H -6.2412 11.9550 -21.1385 0
M  V30 543 H -12.1889 15.3281 -20.4101 0
M  V30 544 H -10.4626 15.0776 -22.5713 0
M  V30 545 C 5.2180 -12.3171 -23.7858 0
M  V30 546 C 6.3953 -12.7807 -23.0954 0
M  V30 547 C 6.8393 -12.5828 -21.8375 0
M  V30 548 C 7.9984 -13.1678 -21.5019 0
M  V30 549 S 9.0260 -13.2045 -19.9145 0
M  V30 550 C 10.3089 -14.2524 -20.6146 0
M  V30 551 C 11.4787 -14.7084 -19.9165 0
M  V30 552 C 9.8638 -14.4488 -21.8707 0
M  V30 553 C 8.6995 -13.8560 -22.1940 0
M  V30 554 S 7.6689 -13.8186 -23.7844 0
M  V30 555 H 4.5219 -11.6999 -23.2758 0
M  V30 556 H 6.2412 -11.9550 -21.1385 0
M  V30 557 H 12.1889 -15.3281 -20.4101 0
M  V30 558 H 10.4626 -15.0776 -22.5713 0
M  V30 559 C -5.2114 -12.3146 -23.7899 0
M  V30 560 C -6.3885 -12.7786 -23.0993 0
M  V30 561 C -6.8393 -12.5696 -21.8456 0
M  V30 562 C -7.9958 -13.1589 -21.5084 0
M  V30 563 S -9.0300 -13.1849 -19.9251 0
M  V30 564 C -10.3026 -14.2496 -20.6188 0
M  V30 565 C -11.4721 -14.7059 -19.9205 0
M  V30 566 C -9.8506 -14.4571 -21.8706 0
M  V30 567 C -8.6890 -13.8598 -22.1956 0
M  V30 568 S -7.6518 -13.8331 -23.7820 0
M  V30 569 H -4.5219 -11.6868 -23.2839 0
M  V30 570 H -6.2486 -11.9299 -21.1513 0
M  V30 571 H -12.1758 -15.3361 -20.4101 0
M  V30 572 H -10.4419 -15.0978 -22.5666 0
M  V30 573 C -5.2180 -12.3171 23.7858 0
M  V30 574 C -6.3953 -12.7807 23.0954 0
M  V30 575 C -6.8393 -12.5828 21.8375 0
M  V30 576 C -7.9984 -13.1678 21.5019 0
M  V30 577 S -9.0260 -13.2045 19.9145 0
M  V30 578 C -10.3089 -14.2524 20.6146 0
M  V30 579 C -11.4787 -14.7084 19.9165 0
M  V30 580 C -9.8638 -14.4488 21.8707 0
M  V30 581 C -8.6995 -13.8560 22.1940 0
M  V30 582 S -7.6689 -13.8186 23.7844 0
M  V30 583 H -4.5219 -11.6999 23.2758 0
M  V30 584 H -6.2412 -11.9550 21.1385 0
M  V30 585 H -12.1889 -15.3281 20.4101 0
M  V30 586 H -10.4626 -15.0776 22.5713 0
M  V30 587 C 5.2114 -12.3146 23.7899 0
M  V30 588 C 6.3885 -12.7786 23.0993 0
M  V30 589 C 6.8393 -12.5696 21.8456 0
M  V30 590 C 7.9958 -13.1589 21.5084 0
M  V30 591 S 9.0300 -13.1849 19.9251 0
M  V30 592 C 10.3026 -14.2496 20.6188 0
M  V30 593 C 11.4721 -14.7059 19.9205 0
M  V30 594 C 9.8506 -14.4571 21.8706 0
M  V30 595 C 8.6890 -13.8598 22.1956 0
M  V30 596 S 7.6518 -13.8331 23.7820 0
M  V30 597 H 4.5219 -11.6868 23.2839 0
M  V30 598 H 6.2486 -11.9299 21.1513 0
M  V30 599 H 12.1758 -15.3361 20.4101 0
M  V30 600 H 10.4419 -15.0978 22.5666 0
M  V30 END ATOM
M  V30 BEGIN BOND
M  V30 1 1 1 2
M  V30 2 2 2 3
M  V30 3 1 3 4
M  V30 4 1 4 5
M  V30 5 2 4 6
M  V30 6 1 6 7
M  V30 7 1 7 8
M  V30 8 2 7 9
M  V30 9 1 9 2
M  V30 10 1 10 11
M  V30 11 2 11 12
M  V30 12 1 12 13
M  V30 13 1 13 14
M  V30 14 2 13 15
M  V30 15 1 15 16
M  V30 16 1 16 17
M  V30 17 2 16 18
M  V30 18 1 18 11
M  V30 19 1 19 20
M  V30 20 2 20 21
M  V30 21 1 21 22
M  V30 22 1 22 23
M  V30 23 2 22 24
M  V30 24 1 24 25
M  V30 25 1 25 26
M  V30 26 2 25 27
M  V30 27 1 27 20
M  V30 28 1 28 29
M  V30 29 2 29 30
M  V30 30 1 30 31
M  V30 31 1 31 32
M  V30 32 2 31 33
M  V30 33 1 33 34
M  V30 34 1 34 35
M  V30 35 2 34 36
M  V30 36 1 36 29
M  V30 37 1 37 38
M  V30 38 2 38 39
M  V30 39 1 39 40
M  V30 40 1 40 41
M  V30 41 2 40 42
M  V30 42 1 42 43
M  V30 43 1 43 44
M  V30 44 2 43 45
M  V30 45 1 45 38
M  V30 46 1 46 47
M  V30 47 2 47 48
M  V30 48 1 48 49
M  V30 49 1 49 50
M  V30 50 2 49 51
M  V30 51 1 51 52
M  V30 52 1 52 53
M  V30 53 2 52 54
M  V30 54 1 54 47
M  V30 55 1 55 56
M  V30 56 2 56 57
M  V30 57 1 57 58
M  V30 58 1 58 59
M  V30 59 2 58 60
M  V30 60 1 60 61
M  V30 61 1 61 62
M  V30 62 2 61 63
M  V30 63 1 63 56
M  V30 64 1 64 65
M  V30 65 2 65 66
M  V30 66 1 66 67
M  V30 67 1 67 68
M  V30 68 2 67 69
M  V30 69 1 69 70
M  V30 70 1 70 71
M  V30 71 2 70 72
M  V30 72 1 72 65
M  V30 73 1 73 74
M  V30 74 2 74 75
M  V30 75 1 75 76
M  V30 76 1 76 77
M  V30 77 2 76 78
M  V30 78 1 78 79
M  V30 79 1 79 80
M  V30 80 2 79 81
M  V30 81 1 81 74
M  V30 82 1 82 83
M  V30 83 2 83 84
M  V30 84 1 84 85
M  V30 85 1 85 86
M  V30 86 2 85 87
M  V30 87 1 87 88
M  V30 88 1 88 89
M  V30 89 2 88 90
M  V30 90 1 90 83
M  V30 91 1 91 92
M  V30 92 2 92 93
M  V30 93 1 93 94
M  V30 94 1 94 95
M  V30 95 2 94 96
M  V30 96 1 96 97
M  V30 97 1 97 98
M  V30 98 2 97 99
M  V30 99 1 99 92
M  V30 100 1 100 101
M  V30 101 2 101 102
M  V30 102 1 102 103
M  V30 103 1 103 104
M  V30 104 2 103 105
M  V30 105 1 105 106
M  V30 106 1 106 107
M  V30 107 2 106 108
M  V30 108 1 108 101
M  V30 109 1 109 110
M  V30 110 2 110 111
M  V30 111 1 111 112
M  V30 112 1 112 113
M  V30 113 2 112 114
M  V30 114 1 114 115
M  V30 115 1 115 116
M  V30 116 2 115 117
M  V30 117 1 117 110
M  V30 118 1 118 119
M  V30 119 2 119 120
M  V30 120 1 120 121
M  V30 121 1 121 122
M  V30 122 2 121 123
M  V30 123 1 123 124
M  V30 124 1 124 125
M  V30 125 2 124 126
M  V30 126 1 126 119
M  V30 127 1 127 128
M  V30 128 2 128 129
M  V30 129 1 129 130
M  V30 130 1 130 131
M  V30 131 2 130 132
M  V30 132 1 132 133
M  V30 133 1 133 134
M  V30 134 2 133 135
M  V30 135 1 135 128
M  V30 136 1 136 137
M  V30 137 2 137 138
M  V30 138 1 138 139
M  V30 139 1 139 140
M  V30 140 2 139 141
M  V30 141 1 141 142
M  V30 142 1 142 143
M  V30 143 2 142 144
M  V30 144 1 144 137
M  V30 145 1 145 146
M  V30 146 2 146 147
M  V30 147 1 147 148
M  V30 148 1 148 149
M  V30 149 2 148 150
M  V30 150 1 150 151
M  V30 151 1 151 152
M  V30 152 2 151 153
M  V30 153 1 153 146
M  V30 154 1 154 155
M  V30 155 2 155 156
M  V30 156 1 156 157
M  V30 157 1 157 158
M  V30 158 2 157 159
M  V30 159 1 159 160
M  V30 160 1 160 161
M  V30 161 2 160 162
M  V30 162 1 162 155
M  V30 163 1 163 164
M  V30 164 2 164 165
M  V30 165 1 165 166
M  V30 166 1 166 167
M  V30 167 2 166 168
M  V30 168 1 168 169
M  V30 169 1 169 170
M  V30 170 2 169 171
M  V30 171 1 171 164
M  V30 172 1 172 173
M  V30 173 2 173 174
M  V30 174 1 174 175
M  V30 175 1 175 176
M  V30 176 2 175 177
M  V30 177 1 177 178
M  V30 178 1 178 179
M  V30 179 2 178 180
M  V30 180 1 180 173
M  V30 181 1 181 182
M  V30 182 2 182 183
M  V30 183 1 183 184
M  V30 184 1 184 185
M  V30 185 1 185 186
M  V30 186 1 186 187
M  V30 187 2 186 188
M  V30 188 1 188 189
M  V30 189 1 189 190
M  V30 190 1 190 182
M  V30 191 2 189 184
M  V30 192 1 181 191
M  V30 193 1 183 192
M  V30 194 1 187 193
M  V30 195 1 188 194
M  V30 196 1 195 196
M  V30 197 2 196 197
M  V30 198 1 197 198
M  V30 199 1 198 199
M  V30 200 1 199 200
M  V30 201 1 200 201
M  V30 202 2 200 202
M  V30 203 1 202 203
M  V30 204 1 203 204
M  V30 205 1 204 196
M  V30 206 2 203 198
M  V30 207 1 195 205
M  V30 208 1 197 206
M  V30 209 1 201 207
M  V30 210 1 202 208
M  V30 211 1 209 210
M  V30 212 2 210 211
M  V30 213 1 211 212
M  V30 214 1 212 213
M  V30 215 1 213 214
M  V30 216 1 214 215
M  V30 217 2 214 216
M  V30 218 1 216 217
M  V30 219 1 217 218
M  V30 220 1 218 210
M  V30 221 2 217 212
M  V30 222 1 209 219
M  V30 223 1 211 220
M  V30 224 1 215 221
M  V30 225 1 216 222
M  V30 226 1 223 224
M  V30 227 2 224 225
M  V30 228 1 225 226
M  V30 229 1 226 227
M  V30 230 1 227 228
M  V30 231 1 228 229
M  V30 232 2 228 230
M  V30 233 1 230 231
M  V30 234 1 231 232
M  V30 235 1 232 224
M  V30 236 2 231 226
M  V30 237 1 223 233
M  V30 238 1 225 234
M  V30 239 1 229 235
M  V30 240 1 230 236
M  V30 241 1 237 238
M  V30 242 2 238 239
M  V30 243 1 239 240
M  V30 244 1 240 241
M  V30 245 1 241 242
M  V30 246 1 242 243
M  V30 247 2 242 244
M  V30 248 1 244 245
M  V30 249 1 245 246
M  V30 250 1 246 238
M  V30 251 2 245 240
M  V30 252 1 237 247
M  V30 253 1 239 248
M  V30 254 1 243 249
M  V30 255 1 244 250
M  V30 256 1 251 252
M  V30 257 2 252 253
M  V30 258 1 253 254
M  V30 259 1 254 255
M  V30 260 1 255 256
M  V30 261 1 256 257
M  V30 262 2 256 258
M  V30 263 1 258 259
M  V30 264 1 259 260
M  V30 265 1 260 252
M  V30 266 2 259 254
M  V30 267 1 251 261
M  V30 268 1 253 262
M  V30 269 1 257 263
M  V30 270 1 258 264
M  V30 271 1 265 266
M  V30 272 2 266 267
M  V30 273 1 267 268
M  V30 274 1 268 269
M  V30 275 1 269 270
M  V30 276 1 270 271
M  V30 277 2 270 272
M  V30 278 1 272 273
M  V30 279 1 273 274
M  V30 280 1 274 266
M  V30 281 2 273 268
M  V30 282 1 265 275
M  V30 283 1 267 276
M  V30 284 1 271 277
M  V30 285 1 272 278
M  V30 286 1 279 280
M  V30 287 2 280 281
M  V30 288 1 281 282
M  V30 289 1 282 283
M  V30 290 1 283 284
M  V30 291 1 284 285
M  V30 292 2 284 286
M  V30 293 1 286 287
M  V30 294 1 287 288
M  V30 295 1 288 280
M  V30 296 2 287 282
M  V30 297 1 279 289
M  V30 298 1 281 290
M  V30 299 1 285 291
M  V30 300 1 286 292
M  V30 301 1 293 294
M  V30 302 2 294 295
M  V30 303 1 295 296
M  V30 304 1 296 297
M  V30 305 1 297 298
M  V30 306 1 298 299
M  V30 307 2 298 300
M  V30 308 1 300 301
M  V30 309 1 301 302
M  V30 310 1 302 294
M  V30 311 2 301 296
M  V30 312 1 293 303
M  V30 313 1 295 304
M  V30 314 1 299 305
M  V30 315 1 300 306
M  V30 316 1 307 308
M  V30 317 2 308 309
M  V30 318 1 309 310
M  V30 319 1 310 311
M  V30 320 1 311 312
M  V30 321 1 312 313
M  V30 322 2 312 314
M  V30 323 1 314 315
M  V30 324 1 315 316
M  V30 325 1 316 308
M  V30 326 2 315 310
M  V30 327 1 307 317
M  V30 328 1 309 318
M  V30 329 1 313 319
M  V30 330 1 314 320
M  V30 331 1 321 322
M  V30 332 2 322 323
M  V30 333 1 323 324
M  V30 334 1 324 325
M  V30 335 1 325 326
M  V30 336 1 326 327
M  V30 337 2 326 328
M  V30 338 1 328 329
M  V30 339 1 329 330
M  V30 340 1 330 322
M  V30 341 2 329 324
M  V30 342 1 321 331
M  V30 343 1 323 332
M  V30 344 1 327 333
M  V30 345 1 328 334
M  V30 346 1 335 336
M  V30 347 2 336 337
M  V30 348 1 337 338
M  V30 349 1 338 339
M  V30 350 1 339 340
M  V30 351 1 340 341
M  V30 352 2 340 342
M  V30 353 1 342 343
M  V30 354 1 343 344
M  V30 355 1 344 336
M  V30 356 2 343 338
M  V30 357 1 335 345
M  V30 358 1 337 346
M  V30 359 1 341 347
M  V30 360 1 342 348
M  V30 361 1 349 350
M  V30 362 2 350 351
M  V30 363 1 351 352
M  V30 364 1 352 353
M  V30 365 1 353 354
M  V30 366 1 354 355
M  V30 367 2 354 356
M  V30 368 1 356 357
M  V30 369 1 357 358
M  V30 370 1 358 350
M  V30 371 2 357 352
M  V30 372 1 349 359
M  V30 373 1 351 360
M  V30 374 1 355 361
M  V30 375 1 356 362
M  V30 376 1 363 364
M  V30 377 2 364 365
M  V30 378 1 365 366
M  V30 379 1 366 367
M  V30 380 1 367 368
M  V30 381 1 368 369
M  V30 382 2 368 370
M  V30 383 1 370 371
M  V30 384 1 371 372
M  V30 385 1 372 364
M  V30 386 2 371 366
M  V30 387 1 363 373
M  V30 388 1 365 374
M  V30 389 1 369 375
M  V30 390 1 370 376
M  V30 391 1 377 378
M  V30 392 2 378 379
M  V30 393 1 379 380
M  V30 394 1 380 381
M  V30 395 1 381 382
M  V30 396 1 382 383
M  V30 397 2 382 384
M  V30 398 1 384 385
M  V30 399 1 385 386
M  V30 400 1 386 378
M  V30 401 2 385 380
M  V30 402 1 377 387
M  V30 403 1 379 388
M  V30 404 1 383 389
M  V30 405 1 384 390
M  V30 406 1 391 392
M  V30 407 2 392 393
M  V30 408 1 393 394
M  V30 409 1 394 395
M  V30 410 1 395 396
M  V30 411 1 396 397
M  V30 412 2 396 398
M  V30 413 1 398 399
M  V30 414 1 399 400
M  V30 415 1 400 392
M  V30 416 2 399 394
M  V30 417 1 391 401
M  V30 418 1 393 402
M  V30 419 1 397 403
M  V30 420 1 398 404
M  V30 421 1 405 406
M  V30 422 2 406 407
M  V30 423 1 407 408
M  V30 424 1 408 409
M  V30 425 1 409 410
M  V30 426 1 410 411
M  V30 427 2 410 412
M  V30 428 1 412 413
M  V30 429 1 413 414
M  V30 430 1 414 406
M  V30 431 2 413 408
M  V30 432 1 405 415
M  V30 433 1 407 416
M  V30 434 1 411 417
M  V30 435 1 412 418
M  V30 436 1 419 420
M  V30 437 2 420 421
M  V30 438 1 421 422
M  V30 439 1 422 423
M  V30 440 1 423 424
M  V30 441 1 424 425
M  V30 442 2 424 426
M  V30 443 1 426 427
M  V30 444 1 427 428
M  V30 445 1 428 420
M  V30 446 2 427 422
M  V30 447 1 419 429
M  V30 448 1 421 430
M  V30 449 1 425 431
M  V30 450 1 426 432
M  V30 451 1 433 434
M  V30 452 2 434 435
M  V30 453 1 435 436
M  V30 454 1 436 437
M  V30 455 1 437 438
M  V30 456 1 438 439
M  V30 457 2 438 440
M  V30 458 1 440 441
M  V30 459 1 441 442
M  V30 460 1 442 434
M  V30 461 2 441 436
M  V30 462 1 433 443
M  V30 463 1 435 444
M  V30 464 1 439 445
M  V30 465 1 440 446
M  V30 466 1 447 448
M  V30 467 2 448 449
M  V30 468 1 449 450
M  V30 469 1 450 451
M  V30 470 1 451 452
M  V30 471 1 452 453
M  V30 472 2 452 454
M  V30 473 1 454 455
M  V30 474 1 455 456
M  V30 475 1 456 448
M  V30 476 2 455 450
M  V30 477 1 447 457
M  V30 478 1 449 458
M  V30 479 1 453 459
M  V30 480 1 454 460
M  V30 481 1 461 462
M  V30 482 2 462 463
M  V30 483 1 463 464
M  V30 484 1 464 465
M  V30 485 1 465 466
M  V30 486 1 466 467
M  V30 487 2 466 468
M  V30 488 1 468 469
M  V30 489 1 469 470
M  V30 490 1 470 462
M  V30 491 2 469 464
M  V30 492 1 461 471
M  V30 493 1 463 472
M  V30 494 1 467 473
M  V30 495 1 468 474
M  V30 496 1 475 476
M  V30 497 2 476 477
M  V30 498 1 477 478
M  V30 499 1 478 479
M  V30 500 1 479 480
M  V30 501 1 480 481
M  V30 502 2 480 482
M  V30 503 1 482 483
M  V30 504 1 483 484
M  V30 505 1 484 476
M  V30 506 2 483 478
M  V30 507 1 475 485
M  V30 508 1 477 486
M  V30 509 1 481 487
M  V30 510 1 482 488
M  V30 511 1 489 490
M  V30 512 2 490 491
M  V30 513 1 491 492
M  V30 514 1 492 493
M  V30 515 1 493 494
M  V30 516 1 494 495
M  V30 517 2 494 496
M  V30 518 1 496 497
M  V30 519 1 497 498
M  V30 520 1 498 490
M  V30 521 2 497 492
M  V30 522 1 489 499
M  V30 523 1 491 500
M  V30 524 1 495 501
M  V30 525 1 496 502
M  V30 526 1 503 504
M  V30 527 2 504 505
M  V30 528 1 505 506
M  V30 529 1 506 507
M  V30 530 1 507 508
M  V30 531 1 508 509
M  V30 532 2 508 510
M  V30 533 1 510 511
M  V30 534 1 511 512
M  V30 535 1 512 504
M  V30 536 2 511 506
M  V30 537 1 503 513
M  V30 538 1 505 514
M  V30 539 1 509 515
M  V30 540 1 510 516
M  V30 541 1 517 518
M  V30 542 2 518 519
M  V30 543 1 519 520
M  V30 544 1 520 521
M  V30 545 1 521 522
M  V30 546 1 522 523
M  V30 547 2 522 524
M  V30 548 1 524 525
M  V30 549 1 525 526
M  V30 550 1 526 518
M  V30 551 2 525 520
M  V30 552 1 517 527
M  V30 553 1 519 528
M  V30 554 1 523 529
M  V30 555 1 524 530
M  V30 556 1 531 532
M  V30 557 2 532 533
M  V30 558 1 533 534
M  V30 559 1 534 535
M  V30 560 1 535 536
M  V30 561 1 536 537
M  V30 562 2 536 538
M  V30 563 1 538 539
M  V30 564 1 539 540
M  V30 565 1 540 532
M  V30 566 2 539 534
M  V30 567 1 531 541
M  V30 568 1 533 542
M  V30 569 1 537 543
M  V30 570 1 538 544
M  V30 571 1 545 546
M  V30 572 2 546 547
M  V30 573 1 547 548
M  V30 574 1 548 549
M  V30 575 1 549 550
M  V30 576 1 550 551
M  V30 577 2 550 552
M  V30 578 1 552 553
M  V30 579 1 553 554
M  V30 580 1 554 546
M  V30 581 2 553 548
M  V30 582 1 545 555
M  V30 583 1 547 556
M  V30 584 1 551 557
M  V30 585 1 552 558
M  V30 586 1 559 560
M  V30 587 2 560 561
M  V30 588 1 561 562
M  V30 589 1 562 563
M  V30 590 1 563 564
M  V30 591 1 564 565
M  V30 592 2 564 566
M  V30 593 1 566 567
M  V30 594 1 567 568
M  V30 595 1 568 560
M  V30 596 2 567 562
M  V30 597 1 559 569
M  V30 598 1 561 570
M  V30 599 1 565 571
M  V30 600 1 566 572
M  V30 601 1 573 574
M  V30 602 2 574 575
M  V30 603 1 575 576
M  V30 604 1 576 577
M  V30 605 1 577 578
M  V30 606 1 578 579
M  V30 607 2 578 580
M  V30 608 1 580 581
M  V30 609 1 581 582
M  V30 610 1 582 574
M  V30 611 2 581 576
M  V30 612 1 573 583
M  V30 613 1 575 584
M  V30 614 1 579 585
M  V30 615 1 580 586
M  V30 616 1 587 588
M  V30 617 2 588 589
M  V30 618 1 589 590
M  V30 619 1 590 591
M  V30 620 1 591 592
M  V30 621 1 592 593
M  V30 622 2 592 594
M  V30 623 1 594 595
M  V30 624 1 595 596
M  V30 625 1 596 588
M  V30 626 2 595 590
M  V30 627 1 587 597
M  V30 628 1 589 598
M  V30 629 1 593 599
M  V30 630 1 594 600
M  V30 631 2 1 181
M  V30 632 2 118 187
M  V30 633 2 5 195
M  V30 634 2 109 201
M  V30 635 2 8 209
M  V30 636 2 28 215
M  V30 637 2 10 223
M  V30 638 2 127 229
M  V30 639 2 17 237
M  V30 640 2 136 243
M  V30 641 2 14 251
M  V30 642 2 19 257
M  V30 643 2 23 265
M  V30 644 2 172 271
M  V30 645 2 26 279
M  V30 646 2 145 285
M  V30 647 2 35 293
M  V30 648 2 163 299
M  V30 649 2 32 307
M  V30 650 2 154 313
M  V30 651 2 37 321
M  V30 652 2 116 327
M  V30 653 2 41 335
M  V30 654 2 64 341
M  V30 655 2 44 349
M  V30 656 2 158 355
M  V30 657 2 46 363
M  V30 658 2 55 369
M  V30 659 2 53 377
M  V30 660 2 170 383
M  V30 661 2 50 391
M  V30 662 2 122 397
M  V30 663 2 62 405
M  V30 664 2 134 411
M  V30 665 2 59 419
M  V30 666 2 176 425
M  V30 667 2 68 433
M  V30 668 2 140 439
M  V30 669 2 71 447
M  V30 670 2 152 453
M  V30 671 2 73 461
M  V30 672 2 100 467
M  V30 673 2 80 475
M  V30 674 2 113 481
M  V30 675 2 77 489
M  V30 676 2 143 495
M  V30 677 2 82 503
M  V30 678 2 91 509
M  V30 679 2 86 517
M  V30 680 2 161 523
M  V30 681 2 89 531
M  V30 682 2 149 537
M  V30 683 2 98 545
M  V30 684 2 167 551
M  V30 685 2 95 559
M  V30 686 2 179 565
M  V30 687 2 107 573
M  V30 688 2 131 579
M  V30 689 2 104 587
M  V30 690 2 125 593
M  V30 END BOND
M  V30 END CTAB
M  END

$$$$
