
     RDKit          3D

  0  0  0  0  0  0  0  0  0  0999 V3000
M  V30 BEGIN CTAB
M  V30 COUNTS 198 210 0 0 0
M  V30 BEGIN ATOM
M  V30 1 N -2.4244 -1.3997 12.6330 0
M  V30 2 C -1.1745 -0.6858 12.6330 0
M  V30 3 N -1.1471 0.6475 12.6331 0
M  V30 4 C 0.0035 1.3610 12.6330 0
M  V30 5 N -0.0020 2.7856 12.6330 0
M  V30 6 N 1.1429 0.6451 12.6330 0
M  V30 7 C 1.1778 -0.6983 12.6330 0
M  V30 8 N 2.4264 -1.3859 12.6330 0
M  V30 9 N -0.0037 -1.3447 12.6330 0
M  V30 10 N -11.1230 -6.4218 -1.5717 0
M  V30 11 C -10.7108 -6.1762 -2.9288 0
M  V30 12 N -9.9410 -7.0492 -3.5797 0
M  V30 13 C -9.5290 -6.8606 -4.8554 0
M  V30 14 N -8.7066 -7.8135 -5.5225 0
M  V30 15 N -9.9424 -5.7255 -5.4483 0
M  V30 16 C -10.7180 -4.8098 -4.8435 0
M  V30 17 N -11.1150 -3.6305 -5.5389 0
M  V30 18 N -11.0912 -5.0610 -3.5741 0
M  V30 19 N 11.1230 -6.4218 -1.5717 0
M  V30 20 C 10.7041 -6.1877 -2.9288 0
M  V30 21 N 11.0753 -5.0846 -3.5797 0
M  V30 22 C 10.7060 -4.8221 -4.8554 0
M  V30 23 N 11.1200 -3.6334 -5.5225 0
M  V30 24 N 9.9296 -5.7476 -5.4483 0
M  V30 25 C 9.5244 -6.8771 -4.8435 0
M  V30 26 N 8.7016 -7.8106 -5.5389 0
M  V30 27 N 9.9285 -7.0748 -3.5741 0
M  V30 28 N -0.0000 12.8437 -1.5717 0
M  V30 29 C 0.0067 12.3639 -2.9288 0
M  V30 30 N -1.1343 12.1338 -3.5797 0
M  V30 31 C -1.1770 11.6827 -4.8554 0
M  V30 32 N -2.4134 11.4469 -5.5225 0
M  V30 33 N 0.0128 11.4731 -5.4483 0
M  V30 34 C 1.1936 11.6869 -4.8435 0
M  V30 35 N 2.4134 11.4411 -5.5389 0
M  V30 36 N 1.1627 12.1357 -3.5741 0
M  V30 37 C -9.3747 -5.5078 9.4549 0
M  V30 38 C -9.7587 -5.7196 8.0220 0
M  V30 39 C -11.0964 -5.0409 7.7428 0
M  V30 40 C -9.9694 -7.1934 7.8104 0
M  V30 41 C -8.7687 -5.1190 7.1339 0
M  V30 42 C -7.6849 -4.4792 7.6909 0
M  V30 43 C -6.6932 -3.8789 6.9163 0
M  V30 44 C -5.5544 -3.2068 7.5217 0
M  V30 45 C -6.8136 -3.9348 5.5487 0
M  V30 46 O -5.8324 -3.3408 4.7781 0
M  V30 47 C -7.9017 -4.5771 4.9820 0
M  V30 48 C -7.9929 -4.6147 3.5396 0
M  V30 49 C -8.8661 -5.1611 5.7542 0
M  V30 50 H -9.2784 -4.4257 9.7354 0
M  V30 51 H -10.1253 -6.0057 10.1385 0
M  V30 52 H -8.3867 -5.9622 9.6721 0
M  V30 53 H -11.0098 -3.9936 8.0847 0
M  V30 54 H -11.9272 -5.5825 8.2048 0
M  V30 55 H -11.2514 -4.9929 6.6343 0
M  V30 56 H -9.0147 -7.7567 7.7107 0
M  V30 57 H -10.6830 -7.4152 6.9902 0
M  V30 58 H -10.4469 -7.5798 8.7404 0
M  V30 59 H -7.5174 -4.3917 8.7580 0
M  V30 60 H -5.4574 -3.1614 8.5891 0
M  V30 61 H -5.8108 -2.3354 4.7458 0
M  V30 62 H -7.2418 -4.1597 2.9363 0
M  V30 63 H -9.7320 -5.6728 5.3572 0
M  V30 64 C 9.4598 -5.3551 9.4548 0
M  V30 65 C 9.8351 -5.5820 8.0219 0
M  V30 66 C 9.9170 -7.0799 7.7432 0
M  V30 67 C 11.2164 -5.0269 7.8099 0
M  V30 68 C 8.8195 -5.0258 7.1338 0
M  V30 69 C 7.7233 -4.4075 7.6909 0
M  V30 70 C 6.7071 -3.8497 6.9163 0
M  V30 71 C 5.5554 -3.1999 7.5217 0
M  V30 72 C 6.8155 -3.9264 5.5487 0
M  V30 73 O 5.8100 -3.3745 4.7781 0
M  V30 74 C 7.9160 -4.5472 4.9820 0
M  V30 75 C 7.9940 -4.6078 3.5396 0
M  V30 76 C 8.9044 -5.0895 5.7542 0
M  V30 77 H 8.4749 -5.8131 9.7357 0
M  V30 78 H 10.2667 -5.7555 10.1384 0
M  V30 79 H 9.3588 -4.2722 9.6717 0
M  V30 80 H 8.9670 -7.5290 8.0855 0
M  V30 81 H 10.8018 -7.5280 8.2053 0
M  V30 82 H 9.9527 -7.2385 6.6348 0
M  V30 83 H 11.2263 -3.9185 7.7098 0
M  V30 84 H 11.7655 -5.5340 6.9898 0
M  V30 85 H 11.7901 -5.2466 8.7399 0
M  V30 86 H 7.5639 -4.3060 8.7580 0
M  V30 87 H 5.4677 -3.1383 8.5891 0
M  V30 88 H 4.9287 -3.8590 4.7462 0
M  V30 89 H 7.2240 -4.1854 2.9363 0
M  V30 90 H 9.7808 -5.5832 5.3571 0
M  V30 91 C -0.0841 10.8657 9.4548 0
M  V30 92 C -0.0755 11.3042 8.0220 0
M  V30 93 C 1.1811 12.1234 7.7428 0
M  V30 94 C -1.2465 12.2234 7.8103 0
M  V30 95 C -0.0502 10.1465 7.1339 0
M  V30 96 C -0.0379 8.8880 7.6909 0
M  V30 97 C -0.0137 7.7290 6.9163 0
M  V30 98 C -0.0010 6.4068 7.5217 0
M  V30 99 C -0.0019 7.8612 5.5487 0
M  V30 100 O 0.0221 6.7145 4.7781 0
M  V30 101 C -0.0141 9.1247 4.9820 0
M  V30 102 C -0.0010 9.2225 3.5396 0
M  V30 103 C -0.0378 10.2519 5.7542 0
M  V30 104 H 0.8049 10.2413 9.7354 0
M  V30 105 H -0.1401 11.7647 10.1384 0
M  V30 106 H -0.9716 10.2372 9.6721 0
M  V30 107 H 2.0449 11.5248 8.0848 0
M  V30 108 H 1.1274 13.1137 8.2049 0
M  V30 109 H 1.3003 12.2336 6.6344 0
M  V30 110 H -2.2116 11.6782 7.7105 0
M  V30 111 H -1.0818 12.9524 6.9901 0
M  V30 112 H -1.3425 12.8301 8.7403 0
M  V30 113 H -0.0459 8.6992 8.7580 0
M  V30 114 H -0.0102 6.3000 8.5891 0
M  V30 115 H 0.8821 6.1931 4.7459 0
M  V30 116 H 0.0175 8.3445 2.9363 0
M  V30 117 H -0.0481 11.2577 5.3572 0
M  V30 118 C -1.4451 -11.7421 -8.2119 0
M  V30 119 C -0.0220 -11.3541 -7.9477 0
M  V30 120 C 0.6789 -11.0424 -9.2666 0
M  V30 121 C 0.6816 -12.5437 -7.3551 0
M  V30 122 C 0.0348 -10.1497 -7.1258 0
M  V30 123 C -1.1466 -9.5665 -6.7278 0
M  V30 124 C -1.1833 -8.4152 -5.9422 0
M  V30 125 C -2.4410 -7.8121 -5.5307 0
M  V30 126 C 0.0097 -7.8521 -5.5580 0
M  V30 127 O -0.0232 -6.7110 -4.7793 0
M  V30 128 C 1.2019 -8.4341 -5.9551 0
M  V30 129 C 2.4360 -7.8121 -5.5307 0
M  V30 130 C 1.2221 -9.5627 -6.7252 0
M  V30 131 H -2.0346 -10.9445 -8.7364 0
M  V30 132 H -1.4842 -12.6956 -8.8184 0
M  V30 133 H -1.9853 -11.9385 -7.2635 0
M  V30 134 H 0.0541 -10.3054 -9.8032 0
M  V30 135 H 0.8734 -11.9510 -9.8442 0
M  V30 136 H 1.6476 -10.5246 -9.0460 0
M  V30 137 H 0.4483 -12.6911 -6.2770 0
M  V30 138 H 1.7721 -12.5478 -7.5598 0
M  V30 139 H 0.2725 -13.4417 -7.8734 0
M  V30 140 H -2.1269 -9.9481 -6.9882 0
M  V30 141 H -3.3742 -8.2491 -5.8289 0
M  V30 142 H -0.2979 -5.8515 -5.2244 0
M  V30 143 H 2.4217 -6.9320 -4.9302 0
M  V30 144 H 2.1270 -10.0518 -7.0590 0
M  V30 145 C -10.8064 4.5762 -8.3466 0
M  V30 146 C -9.7674 5.6196 -8.0685 0
M  V30 147 C -10.4046 6.7968 -7.3362 0
M  V30 148 C -9.2739 6.1471 -9.3873 0
M  V30 149 C -8.7211 5.0811 -7.2055 0
M  V30 150 C -8.8189 3.7734 -6.7877 0
M  V30 151 C -7.8643 3.1799 -5.9628 0
M  V30 152 C -7.9835 1.7964 -5.5307 0
M  V30 153 C -6.7919 3.9383 -5.5594 0
M  V30 154 O -5.8440 3.3531 -4.7418 0
M  V30 155 C -6.6877 5.2547 -5.9763 0
M  V30 156 C -5.5449 6.0200 -5.5307 0
M  V30 157 C -7.6314 5.8229 -6.7850 0
M  V30 158 H -11.3001 4.1805 -7.4201 0
M  V30 159 H -11.5957 4.9868 -9.0444 0
M  V30 160 H -10.3583 3.6938 -8.8470 0
M  V30 161 H -10.9432 6.3864 -6.4629 0
M  V30 162 H -11.0406 7.3886 -8.0013 0
M  V30 163 H -9.5911 7.4457 -6.9212 0
M  V30 164 H -8.5523 5.4611 -9.8846 0
M  V30 165 H -8.8970 7.1888 -9.3232 0
M  V30 166 H -10.1601 6.1864 -10.0621 0
M  V30 167 H -9.6316 3.1106 -7.0611 0
M  V30 168 H -8.8194 1.2015 -5.8438 0
M  V30 169 H -6.0976 3.1822 -3.7832 0
M  V30 170 H -4.8084 5.5783 -4.9001 0
M  V30 171 H -7.5922 6.8452 -7.1354 0
M  V30 172 C 10.8915 4.6196 -8.2119 0
M  V30 173 C 9.8439 5.6581 -7.9477 0
M  V30 174 C 9.2235 6.1091 -9.2666 0
M  V30 175 C 10.5224 6.8621 -7.3551 0
M  V30 176 C 8.7725 5.1050 -7.1258 0
M  V30 177 C 8.8581 3.7903 -6.7278 0
M  V30 178 C 7.8794 3.1828 -5.9422 0
M  V30 179 C 7.9860 1.7920 -5.5307 0
M  V30 180 C 6.7952 3.9344 -5.5580 0
M  V30 181 O 5.8235 3.3354 -4.7793 0
M  V30 182 C 6.7032 5.2579 -5.9551 0
M  V30 183 C 5.5474 6.0157 -5.5307 0
M  V30 184 C 7.6705 5.8397 -6.7252 0
M  V30 185 H 10.4955 3.7102 -8.7364 0
M  V30 186 H 11.7368 5.0624 -8.8184 0
M  V30 187 H 11.3317 4.2500 -7.2635 0
M  V30 188 H 8.8977 5.1996 -9.8032 0
M  V30 189 H 9.9132 6.7319 -9.8442 0
M  V30 190 H 8.2908 6.6892 -9.0460 0
M  V30 191 H 10.7667 6.7338 -6.2770 0
M  V30 192 H 9.9807 7.8086 -7.5598 0
M  V30 193 H 11.5046 6.9569 -7.8734 0
M  V30 194 H 9.6787 3.1321 -6.9882 0
M  V30 195 H 8.8310 1.2024 -5.8289 0
M  V30 196 H 5.2165 2.6677 -5.2244 0
M  V30 197 H 4.7924 5.5633 -4.9302 0
M  V30 198 H 7.6416 6.8679 -7.0590 0
M  V30 END ATOM
M  V30 BEGIN BOND
M  V30 1 1 1 2
M  V30 2 2 2 3
M  V30 3 1 3 4
M  V30 4 1 4 5
M  V30 5 2 4 6
M  V30 6 1 6 7
M  V30 7 1 7 8
M  V30 8 2 7 9
M  V30 9 1 9 2
M  V30 10 1 10 11
M  V30 11 2 11 12
M  V30 12 1 12 13
M  V30 13 1 13 14
M  V30 14 2 13 15
M  V30 15 1 15 16
M  V30 16 1 16 17
M  V30 17 2 16 18
M  V30 18 1 18 11
M  V30 19 1 19 20
M  V30 20 2 20 21
M  V30 21 1 21 22
M  V30 22 1 22 23
M  V30 23 2 22 24
M  V30 24 1 24 25
M  V30 25 1 25 26
M  V30 26 2 25 27
M  V30 27 1 27 20
M  V30 28 1 28 29
M  V30 29 2 29 30
M  V30 30 1 30 31
M  V30 31 1 31 32
M  V30 32 2 31 33
M  V30 33 1 33 34
M  V30 34 1 34 35
M  V30 35 2 34 36
M  V30 36 1 36 29
M  V30 37 1 37 38
M  V30 38 1 38 39
M  V30 39 1 38 40
M  V30 40 1 38 41
M  V30 41 2 41 42
M  V30 42 1 42 43
M  V30 43 1 43 44
M  V30 44 2 43 45
M  V30 45 1 45 46
M  V30 46 1 45 47
M  V30 47 1 47 48
M  V30 48 2 47 49
M  V30 49 1 49 41
M  V30 50 1 37 50
M  V30 51 1 37 51
M  V30 52 1 37 52
M  V30 53 1 39 53
M  V30 54 1 39 54
M  V30 55 1 39 55
M  V30 56 1 40 56
M  V30 57 1 40 57
M  V30 58 1 40 58
M  V30 59 1 42 59
M  V30 60 1 44 60
M  V30 61 1 46 61
M  V30 62 1 48 62
M  V30 63 1 49 63
M  V30 64 1 64 65
M  V30 65 1 65 66
M  V30 66 1 65 67
M  V30 67 1 65 68
M  V30 68 2 68 69
M  V30 69 1 69 70
M  V30 70 1 70 71
M  V30 71 2 70 72
M  V30 72 1 72 73
M  V30 73 1 72 74
M  V30 74 1 74 75
M  V30 75 2 74 76
M  V30 76 1 76 68
M  V30 77 1 64 77
M  V30 78 1 64 78
M  V30 79 1 64 79
M  V30 80 1 66 80
M  V30 81 1 66 81
M  V30 82 1 66 82
M  V30 83 1 67 83
M  V30 84 1 67 84
M  V30 85 1 67 85
M  V30 86 1 69 86
M  V30 87 1 71 87
M  V30 88 1 73 88
M  V30 89 1 75 89
M  V30 90 1 76 90
M  V30 91 1 91 92
M  V30 92 1 92 93
M  V30 93 1 92 94
M  V30 94 1 92 95
M  V30 95 2 95 96
M  V30 96 1 96 97
M  V30 97 1 97 98
M  V30 98 2 97 99
M  V30 99 1 99 100
M  V30 100 1 99 101
M  V30 101 1 101 102
M  V30 102 2 101 103
M  V30 103 1 103 95
M  V30 104 1 91 104
M  V30 105 1 91 105
M  V30 106 1 91 106
M  V30 107 1 93 107
M  V30 108 1 93 108
M  V30 109 1 93 109
M  V30 110 1 94 110
M  V30 111 1 94 111
M  V30 112 1 94 112
M  V30 113 1 96 113
M  V30 114 1 98 114
M  V30 115 1 100 115
M  V30 116 1 102 116
M  V30 117 1 103 117
M  V30 118 1 118 119
M  V30 119 1 119 120
M  V30 120 1 119 121
M  V30 121 1 119 122
M  V30 122 2 122 123
M  V30 123 1 123 124
M  V30 124 1 124 125
M  V30 125 2 124 126
M  V30 126 1 126 127
M  V30 127 1 126 128
M  V30 128 1 128 129
M  V30 129 2 128 130
M  V30 130 1 130 122
M  V30 131 1 118 131
M  V30 132 1 118 132
M  V30 133 1 118 133
M  V30 134 1 120 134
M  V30 135 1 120 135
M  V30 136 1 120 136
M  V30 137 1 121 137
M  V30 138 1 121 138
M  V30 139 1 121 139
M  V30 140 1 123 140
M  V30 141 1 125 141
M  V30 142 1 127 142
M  V30 143 1 129 143
M  V30 144 1 130 144
M  V30 145 1 145 146
M  V30 146 1 146 147
M  V30 147 1 146 148
M  V30 148 1 146 149
M  V30 149 2 149 150
M  V30 150 1 150 151
M  V30 151 1 151 152
M  V30 152 2 151 153
M  V30 153 1 153 154
M  V30 154 1 153 155
M  V30 155 1 155 156
M  V30 156 2 155 157
M  V30 157 1 157 149
M  V30 158 1 145 158
M  V30 159 1 145 159
M  V30 160 1 145 160
M  V30 161 1 147 161
M  V30 162 1 147 162
M  V30 163 1 147 163
M  V30 164 1 148 164
M  V30 165 1 148 165
M  V30 166 1 148 166
M  V30 167 1 150 167
M  V30 168 1 152 168
M  V30 169 1 154 169
M  V30 170 1 156 170
M  V30 171 1 157 171
M  V30 172 1 172 173
M  V30 173 1 173 174
M  V30 174 1 173 175
M  V30 175 1 173 176
M  V30 176 2 176 177
M  V30 177 1 177 178
M  V30 178 1 178 179
M  V30 179 2 178 180
M  V30 180 1 180 181
M  V30 181 1 180 182
M  V30 182 1 182 183
M  V30 183 2 182 184
M  V30 184 1 184 176
M  V30 185 1 172 185
M  V30 186 1 172 186
M  V30 187 1 172 187
M  V30 188 1 174 188
M  V30 189 1 174 189
M  V30 190 1 174 190
M  V30 191 1 175 191
M  V30 192 1 175 192
M  V30 193 1 175 193
M  V30 194 1 177 194
M  V30 195 1 179 195
M  V30 196 1 181 196
M  V30 197 1 183 197
M  V30 198 1 184 198
M  V30 199 2 1 44
M  V30 200 2 10 48
M  V30 201 2 8 71
M  V30 202 2 19 75
M  V30 203 2 5 98
M  V30 204 2 28 102
M  V30 205 2 14 125
M  V30 206 2 26 129
M  V30 207 2 17 152
M  V30 208 2 32 156
M  V30 209 2 23 179
M  V30 210 2 35 183
M  V30 END BOND
M  V30 END CTAB
M  END

$$$$
