
     RDKit          3D

  0  0  0  0  0  0  0  0  0  0999 V3000
M  V30 BEGIN CTAB
M  V30 COUNTS 120 132 0 0 0
M  V30 BEGIN ATOM
M  V30 1 N -2.4244 -1.3997 10.5645 0
M  V30 2 C -1.1745 -0.6858 10.5645 0
M  V30 3 N -1.1471 0.6475 10.5645 0
M  V30 4 C 0.0035 1.3610 10.5645 0
M  V30 5 N -0.0020 2.7856 10.5645 0
M  V30 6 N 1.1429 0.6451 10.5645 0
M  V30 7 C 1.1778 -0.6983 10.5645 0
M  V30 8 N 2.4264 -1.3859 10.5645 0
M  V30 9 N -0.0037 -1.3447 10.5645 0
M  V30 10 N -9.4340 -5.4467 -0.8822 0
M  V30 11 C -9.0218 -5.2011 -2.2393 0
M  V30 12 N -8.2521 -6.0741 -2.8901 0
M  V30 13 C -7.8401 -5.8855 -4.1659 0
M  V30 14 N -7.0176 -6.8384 -4.8330 0
M  V30 15 N -8.2534 -4.7504 -4.7588 0
M  V30 16 C -9.0290 -3.8347 -4.1540 0
M  V30 17 N -9.4260 -2.6553 -4.8494 0
M  V30 18 N -9.4022 -4.0858 -2.8846 0
M  V30 19 N 9.4340 -5.4467 -0.8822 0
M  V30 20 C 9.0152 -5.2126 -2.2393 0
M  V30 21 N 9.3863 -4.1095 -2.8901 0
M  V30 22 C 9.0171 -3.8470 -4.1659 0
M  V30 23 N 9.4310 -2.6582 -4.8330 0
M  V30 24 N 8.2406 -4.7725 -4.7588 0
M  V30 25 C 7.8354 -5.9020 -4.1540 0
M  V30 26 N 7.0126 -6.8355 -4.8494 0
M  V30 27 N 8.2395 -6.0996 -2.8846 0
M  V30 28 N -0.0000 10.8935 -0.8822 0
M  V30 29 C 0.0067 10.4137 -2.2393 0
M  V30 30 N -1.1343 10.1835 -2.8901 0
M  V30 31 C -1.1770 9.7325 -4.1659 0
M  V30 32 N -2.4134 9.4966 -4.8330 0
M  V30 33 N 0.0128 9.5229 -4.7588 0
M  V30 34 C 1.1936 9.7367 -4.1540 0
M  V30 35 N 2.4134 9.4908 -4.8494 0
M  V30 36 N 1.1627 10.1855 -2.8846 0
M  V30 37 C -4.4946 -2.5949 7.1839 0
M  V30 38 C -5.2196 -3.0135 6.0004 0
M  V30 39 C -6.4100 -3.7008 6.0877 0
M  V30 40 C -7.1077 -4.1036 4.9524 0
M  V30 41 C -6.6348 -3.8306 3.6855 0
M  V30 42 C -7.3639 -4.2515 2.4984 0
M  V30 43 C -5.4375 -3.1394 3.5996 0
M  V30 44 C -4.7456 -2.7399 4.7251 0
M  V30 45 H -4.9072 -2.8331 8.1443 0
M  V30 46 H -6.8022 -3.9271 7.0646 0
M  V30 47 H -8.0484 -4.6467 5.0241 0
M  V30 48 H -8.2843 -4.7829 2.6132 0
M  V30 49 H -5.0541 -2.9181 2.6150 0
M  V30 50 H -3.8149 -2.2026 4.6521 0
M  V30 51 C 4.4956 -2.5880 7.1839 0
M  V30 52 C 5.2206 -3.0066 6.0004 0
M  V30 53 C 6.4115 -3.6931 6.0877 0
M  V30 54 C 7.1091 -4.0959 4.9524 0
M  V30 55 C 6.6358 -3.8237 3.6855 0
M  V30 56 C 7.3649 -4.2446 2.4984 0
M  V30 57 C 5.4381 -3.1332 3.5996 0
M  V30 58 C 4.7462 -2.7337 4.7251 0
M  V30 59 H 4.9086 -2.8257 8.1443 0
M  V30 60 H 6.8039 -3.9189 7.0646 0
M  V30 61 H 8.0501 -4.6384 5.0241 0
M  V30 62 H 8.2856 -4.7754 2.6132 0
M  V30 63 H 5.0544 -2.9124 2.6150 0
M  V30 64 H 3.8152 -2.1970 4.6521 0
M  V30 65 C -0.0010 5.1829 7.1839 0
M  V30 66 C -0.0010 6.0201 6.0004 0
M  V30 67 C -0.0011 7.3947 6.0877 0
M  V30 68 C -0.0011 8.2003 4.9524 0
M  V30 69 C -0.0010 7.6543 3.6855 0
M  V30 70 C -0.0010 8.4961 2.4984 0
M  V30 71 C -0.0009 6.2718 3.5996 0
M  V30 72 C -0.0009 5.4728 4.7251 0
M  V30 73 H -0.0011 5.6594 8.1443 0
M  V30 74 H -0.0012 7.8475 7.0646 0
M  V30 75 H -0.0012 9.2865 5.0241 0
M  V30 76 H -0.0011 9.5590 2.6132 0
M  V30 77 H -0.0009 5.8291 2.6150 0
M  V30 78 H -0.0008 4.3982 4.6521 0
M  V30 79 C -2.8718 -6.8370 -4.8412 0
M  V30 80 C -1.4221 -6.8372 -4.8413 0
M  V30 81 C -0.6998 -7.7942 -5.5191 0
M  V30 82 C 0.6924 -7.7961 -5.5204 0
M  V30 83 C 1.4115 -6.8353 -4.8400 0
M  V30 84 C 2.8668 -6.8370 -4.8412 0
M  V30 85 C 0.6834 -5.8736 -4.1590 0
M  V30 86 C -0.6968 -5.8716 -4.1575 0
M  V30 87 H -3.3809 -7.6069 -5.3865 0
M  V30 88 H -1.2360 -8.5562 -6.0587 0
M  V30 89 H 1.2609 -8.5537 -6.0568 0
M  V30 90 H 3.3867 -7.5992 -5.3810 0
M  V30 91 H 1.2318 -5.1148 -3.6216 0
M  V30 92 H -1.2576 -5.1211 -3.6261 0
M  V30 93 C -7.3544 0.9358 -4.8412 0
M  V30 94 C -6.6297 2.1913 -4.8413 0
M  V30 95 C -7.0974 3.2955 -5.5190 0
M  V30 96 C -6.4030 4.5020 -5.5203 0
M  V30 97 C -5.2113 4.6444 -4.8400 0
M  V30 98 C -4.4851 5.9055 -4.8412 0
M  V30 99 C -4.7425 3.5330 -4.1591 0
M  V30 100 C -5.4308 2.3366 -4.1576 0
M  V30 101 H -8.2758 0.8799 -5.3864 0
M  V30 102 H -8.0255 3.2121 -6.0585 0
M  V30 103 H -6.7748 5.3732 -6.0567 0
M  V30 104 H -4.8853 6.7370 -5.3809 0
M  V30 105 H -3.8110 3.6284 -3.6218 0
M  V30 106 H -5.0612 1.4757 -3.6262 0
M  V30 107 C 7.3569 0.9314 -4.8412 0
M  V30 108 C 6.6322 2.1870 -4.8413 0
M  V30 109 C 7.0999 3.2911 -5.5191 0
M  V30 110 C 6.4054 4.4977 -5.5204 0
M  V30 111 C 5.2138 4.6400 -4.8400 0
M  V30 112 C 4.4876 5.9012 -4.8412 0
M  V30 113 C 4.7450 3.5287 -4.1590 0
M  V30 114 C 5.4334 2.3323 -4.1575 0
M  V30 115 H 8.2782 0.8756 -5.3865 0
M  V30 116 H 8.0279 3.2077 -6.0587 0
M  V30 117 H 6.7773 5.3688 -6.0568 0
M  V30 118 H 4.8877 6.7326 -5.3810 0
M  V30 119 H 3.8136 3.6242 -3.6216 0
M  V30 120 H 5.0638 1.4714 -3.6261 0
M  V30 END ATOM
M  V30 BEGIN BOND
M  V30 1 1 1 2
M  V30 2 2 2 3
M  V30 3 1 3 4
M  V30 4 1 4 5
M  V30 5 2 4 6
M  V30 6 1 6 7
M  V30 7 1 7 8
M  V30 8 2 7 9
M  V30 9 1 9 2
M  V30 10 1 10 11
M  V30 11 2 11 12
M  V30 12 1 12 13
M  V30 13 1 13 14
M  V30 14 2 13 15
M  V30 15 1 15 16
M  V30 16 1 16 17
M  V30 17 2 16 18
M  V30 18 1 18 11
M  V30 19 1 19 20
M  V30 20 2 20 21
M  V30 21 1 21 22
M  V30 22 1 22 23
M  V30 23 2 22 24
M  V30 24 1 24 25
M  V30 25 1 25 26
M  V30 26 2 25 27
M  V30 27 1 27 20
M  V30 28 1 28 29
M  V30 29 2 29 30
M  V30 30 1 30 31
M  V30 31 1 31 32
M  V30 32 2 31 33
M  V30 33 1 33 34
M  V30 34 1 34 35
M  V30 35 2 34 36
M  V30 36 1 36 29
M  V30 37 1 37 38
M  V30 38 2 38 39
M  V30 39 1 39 40
M  V30 40 2 40 41
M  V30 41 1 41 42
M  V30 42 1 41 43
M  V30 43 2 43 44
M  V30 44 1 44 38
M  V30 45 1 37 45
M  V30 46 1 39 46
M  V30 47 1 40 47
M  V30 48 1 42 48
M  V30 49 1 43 49
M  V30 50 1 44 50
M  V30 51 1 51 52
M  V30 52 2 52 53
M  V30 53 1 53 54
M  V30 54 2 54 55
M  V30 55 1 55 56
M  V30 56 1 55 57
M  V30 57 2 57 58
M  V30 58 1 58 52
M  V30 59 1 51 59
M  V30 60 1 53 60
M  V30 61 1 54 61
M  V30 62 1 56 62
M  V30 63 1 57 63
M  V30 64 1 58 64
M  V30 65 1 65 66
M  V30 66 2 66 67
M  V30 67 1 67 68
M  V30 68 2 68 69
M  V30 69 1 69 70
M  V30 70 1 69 71
M  V30 71 2 71 72
M  V30 72 1 72 66
M  V30 73 1 65 73
M  V30 74 1 67 74
M  V30 75 1 68 75
M  V30 76 1 70 76
M  V30 77 1 71 77
M  V30 78 1 72 78
M  V30 79 1 79 80
M  V30 80 2 80 81
M  V30 81 1 81 82
M  V30 82 2 82 83
M  V30 83 1 83 84
M  V30 84 1 83 85
M  V30 85 2 85 86
M  V30 86 1 86 80
M  V30 87 1 79 87
M  V30 88 1 81 88
M  V30 89 1 82 89
M  V30 90 1 84 90
M  V30 91 1 85 91
M  V30 92 1 86 92
M  V30 93 1 93 94
M  V30 94 2 94 95
M  V30 95 1 95 96
M  V30 96 2 96 97
M  V30 97 1 97 98
M  V30 98 1 97 99
M  V30 99 2 99 100
M  V30 100 1 100 94
M  V30 101 1 93 101
M  V30 102 1 95 102
M  V30 103 1 96 103
M  V30 104 1 98 104
M  V30 105 1 99 105
M  V30 106 1 100 106
M  V30 107 1 107 108
M  V30 108 2 108 109
M  V30 109 1 109 110
M  V30 110 2 110 111
M  V30 111 1 111 112
M  V30 112 1 111 113
M  V30 113 2 113 114
M  V30 114 1 114 108
M  V30 115 1 107 115
M  V30 116 1 109 116
M  V30 117 1 110 117
M  V30 118 1 112 118
M  V30 119 1 113 119
M  V30 120 1 114 120
M  V30 121 2 1 37
M  V30 122 2 10 42
M  V30 123 2 8 51
M  V30 124 2 19 56
M  V30 125 2 5 65
M  V30 126 2 28 70
M  V30 127 2 14 79
M  V30 128 2 26 84
M  V30 129 2 17 93
M  V30 130 2 32 98
M  V30 131 2 23 107
M  V30 132 2 35 112
M  V30 END BOND
M  V30 END CTAB
M  END

$$$$
