
     RDKit          3D

  0  0  0  0  0  0  0  0  0  0999 V3000
M  V30 BEGIN CTAB
M  V30 COUNTS 600 660 0 0 0
M  V30 BEGIN ATOM
M  V30 1 N 20.4360 -2.4244 9.3042 0
M  V30 2 C 20.6949 -1.1811 8.6265 0
M  V30 3 N 20.4655 -0.0128 9.2271 0
M  V30 4 C 20.6937 1.1804 8.6296 0
M  V30 5 N 20.4378 2.4114 9.2994 0
M  V30 6 N 21.1735 1.1302 7.3733 0
M  V30 7 C 21.4240 -0.0158 6.7177 0
M  V30 8 N 21.9325 0.0130 5.3863 0
M  V30 9 N 21.1742 -1.1663 7.3715 0
M  V30 10 N -20.4360 -2.4244 9.3042 0
M  V30 11 C -20.6908 -1.1745 8.6373 0
M  V30 12 N -21.1665 -1.1471 7.3918 0
M  V30 13 C -21.4211 0.0035 6.7252 0
M  V30 14 N -21.9294 -0.0020 5.3944 0
M  V30 15 N -21.1657 1.1429 7.3940 0
M  V30 16 C -20.6863 1.1778 8.6489 0
M  V30 17 N -20.4409 2.4264 9.2913 0
M  V30 18 N -20.4557 -0.0037 9.2528 0
M  V30 19 N -21.9344 0.0000 -5.3815 0
M  V30 20 C -21.4207 0.0067 -6.7261 0
M  V30 21 N -21.1744 -1.1343 -7.3711 0
M  V30 22 C -20.6916 -1.1770 -8.6352 0
M  V30 23 N -20.4391 -2.4134 -9.2961 0
M  V30 24 N -20.4672 0.0128 -9.2226 0
M  V30 25 C -20.6961 1.1936 -8.6233 0
M  V30 26 N -20.4329 2.4134 -9.3123 0
M  V30 27 N -21.1765 1.1627 -7.3656 0
M  V30 28 N 21.9344 0.0000 -5.3815 0
M  V30 29 C 21.4207 -0.0067 -6.7261 0
M  V30 30 N 21.1744 1.1343 -7.3711 0
M  V30 31 C 20.6916 1.1770 -8.6352 0
M  V30 32 N 20.4391 2.4134 -9.2961 0
M  V30 33 N 20.4672 -0.0128 -9.2226 0
M  V30 34 C 20.6961 -1.1936 -8.6233 0
M  V30 35 N 20.4329 -2.4134 -9.3123 0
M  V30 36 N 21.1765 -1.1627 -7.3656 0
M  V30 37 N 9.3042 20.4360 2.4244 0
M  V30 38 C 8.6373 20.6908 1.1745 0
M  V30 39 N 7.3918 21.1665 1.1471 0
M  V30 40 C 6.7252 21.4211 -0.0035 0
M  V30 41 N 5.3944 21.9294 0.0020 0
M  V30 42 N 7.3940 21.1657 -1.1429 0
M  V30 43 C 8.6489 20.6863 -1.1778 0
M  V30 44 N 9.2913 20.4409 -2.4264 0
M  V30 45 N 9.2528 20.4557 0.0037 0
M  V30 46 N 5.3815 -21.9344 0.0000 0
M  V30 47 C 6.7261 -21.4207 -0.0067 0
M  V30 48 N 7.3711 -21.1744 1.1343 0
M  V30 49 C 8.6352 -20.6916 1.1770 0
M  V30 50 N 9.2961 -20.4391 2.4134 0
M  V30 51 N 9.2226 -20.4672 -0.0128 0
M  V30 52 C 8.6233 -20.6961 -1.1936 0
M  V30 53 N 9.3123 -20.4329 -2.4134 0
M  V30 54 N 7.3656 -21.1765 -1.1627 0
M  V30 55 N -5.3815 -21.9344 0.0000 0
M  V30 56 C -6.7261 -21.4207 0.0067 0
M  V30 57 N -7.3711 -21.1744 -1.1343 0
M  V30 58 C -8.6352 -20.6916 -1.1770 0
M  V30 59 N -9.2961 -20.4391 -2.4134 0
M  V30 60 N -9.2226 -20.4672 0.0128 0
M  V30 61 C -8.6233 -20.6961 1.1936 0
M  V30 62 N -9.3123 -20.4329 2.4134 0
M  V30 63 N -7.3656 -21.1765 1.1627 0
M  V30 64 N -5.3815 21.9344 0.0000 0
M  V30 65 C -6.7261 21.4207 -0.0067 0
M  V30 66 N -7.3711 21.1744 1.1343 0
M  V30 67 C -8.6352 20.6916 1.1770 0
M  V30 68 N -9.2961 20.4391 2.4134 0
M  V30 69 N -9.2226 20.4672 -0.0128 0
M  V30 70 C -8.6233 20.6961 -1.1936 0
M  V30 71 N -9.3123 20.4329 -2.4134 0
M  V30 72 N -7.3656 21.1765 -1.1627 0
M  V30 73 N 0.0000 5.3815 21.9344 0
M  V30 74 C 0.0067 6.7261 21.4207 0
M  V30 75 N -1.1343 7.3711 21.1744 0
M  V30 76 C -1.1770 8.6352 20.6916 0
M  V30 77 N -2.4134 9.2961 20.4391 0
M  V30 78 N 0.0128 9.2226 20.4672 0
M  V30 79 C 1.1936 8.6233 20.6961 0
M  V30 80 N 2.4134 9.3123 20.4329 0
M  V30 81 N 1.1627 7.3656 21.1765 0
M  V30 82 N 0.0000 5.3815 -21.9344 0
M  V30 83 C -0.0067 6.7261 -21.4207 0
M  V30 84 N 1.1343 7.3711 -21.1744 0
M  V30 85 C 1.1770 8.6352 -20.6916 0
M  V30 86 N 2.4134 9.2961 -20.4391 0
M  V30 87 N -0.0128 9.2226 -20.4672 0
M  V30 88 C -1.1936 8.6233 -20.6961 0
M  V30 89 N -2.4134 9.3123 -20.4329 0
M  V30 90 N -1.1627 7.3656 -21.1765 0
M  V30 91 N 0.0000 -5.3815 -21.9344 0
M  V30 92 C 0.0067 -6.7261 -21.4207 0
M  V30 93 N -1.1343 -7.3711 -21.1744 0
M  V30 94 C -1.1770 -8.6352 -20.6916 0
M  V30 95 N -2.4134 -9.2961 -20.4391 0
M  V30 96 N 0.0128 -9.2226 -20.4672 0
M  V30 97 C 1.1936 -8.6233 -20.6961 0
M  V30 98 N 2.4134 -9.3123 -20.4329 0
M  V30 99 N 1.1627 -7.3656 -21.1765 0
M  V30 100 N 0.0000 -5.3815 21.9344 0
M  V30 101 C -0.0067 -6.7261 21.4207 0
M  V30 102 N 1.1343 -7.3711 21.1744 0
M  V30 103 C 1.1770 -8.6352 20.6916 0
M  V30 104 N 2.4134 -9.2961 20.4391 0
M  V30 105 N -0.0128 -9.2226 20.4672 0
M  V30 106 C -1.1936 -8.6233 20.6961 0
M  V30 107 N -2.4134 -9.3123 20.4329 0
M  V30 108 N -1.1627 -7.3656 21.1765 0
M  V30 109 N 15.0545 11.1318 12.6301 0
M  V30 110 C 13.9687 12.0643 12.7835 0
M  V30 111 N 13.0944 11.9394 13.7826 0
M  V30 112 C 12.0585 12.7916 13.9664 0
M  V30 113 N 11.1417 12.6300 15.0447 0
M  V30 114 N 11.9509 13.7923 13.0732 0
M  V30 115 C 12.8007 13.9686 12.0472 0
M  V30 116 N 12.6202 15.0547 11.1416 0
M  V30 117 N 13.8086 13.0841 11.9237 0
M  V30 118 N 15.0545 -11.1318 12.6301 0
M  V30 119 C 13.9646 -12.0576 12.7943 0
M  V30 120 N 13.7954 -13.0737 11.9473 0
M  V30 121 C 12.7859 -13.9685 12.0620 0
M  V30 122 N 12.6333 -15.0434 11.1397 0
M  V30 123 N 11.9430 -13.7796 13.0939 0
M  V30 124 C 12.0630 -12.7751 13.9784 0
M  V30 125 N 11.1286 -12.6412 15.0466 0
M  V30 126 N 13.0901 -11.9215 13.8050 0
M  V30 127 N -15.0545 -11.1318 12.6301 0
M  V30 128 C -13.9687 -12.0643 12.7835 0
M  V30 129 N -13.0944 -11.9394 13.7826 0
M  V30 130 C -12.0585 -12.7916 13.9664 0
M  V30 131 N -11.1417 -12.6300 15.0447 0
M  V30 132 N -11.9509 -13.7923 13.0732 0
M  V30 133 C -12.8007 -13.9686 12.0472 0
M  V30 134 N -12.6202 -15.0547 11.1416 0
M  V30 135 N -13.8086 -13.0841 11.9237 0
M  V30 136 N -15.0545 11.1318 12.6301 0
M  V30 137 C -13.9646 12.0576 12.7943 0
M  V30 138 N -13.7954 13.0737 11.9473 0
M  V30 139 C -12.7859 13.9685 12.0620 0
M  V30 140 N -12.6333 15.0434 11.1397 0
M  V30 141 N -11.9430 13.7796 13.0939 0
M  V30 142 C -12.0630 12.7751 13.9784 0
M  V30 143 N -11.1286 12.6412 15.0466 0
M  V30 144 N -13.0901 11.9215 13.8050 0
M  V30 145 N -15.0545 11.1318 -12.6301 0
M  V30 146 C -13.9687 12.0643 -12.7835 0
M  V30 147 N -13.0944 11.9394 -13.7826 0
M  V30 148 C -12.0585 12.7916 -13.9664 0
M  V30 149 N -11.1417 12.6300 -15.0447 0
M  V30 150 N -11.9509 13.7923 -13.0732 0
M  V30 151 C -12.8007 13.9686 -12.0472 0
M  V30 152 N -12.6202 15.0547 -11.1416 0
M  V30 153 N -13.8086 13.0841 -11.9237 0
M  V30 154 N 15.0545 11.1318 -12.6301 0
M  V30 155 C 13.9646 12.0576 -12.7943 0
M  V30 156 N 13.7954 13.0737 -11.9473 0
M  V30 157 C 12.7859 13.9685 -12.0620 0
M  V30 158 N 12.6333 15.0434 -11.1397 0
M  V30 159 N 11.9430 13.7796 -13.0939 0
M  V30 160 C 12.0630 12.7751 -13.9784 0
M  V30 161 N 11.1286 12.6412 -15.0466 0
M  V30 162 N 13.0901 11.9215 -13.8050 0
M  V30 163 N 15.0545 -11.1318 -12.6301 0
M  V30 164 C 13.9687 -12.0643 -12.7835 0
M  V30 165 N 13.0944 -11.9394 -13.7826 0
M  V30 166 C 12.0585 -12.7916 -13.9664 0
M  V30 167 N 11.1417 -12.6300 -15.0447 0
M  V30 168 N 11.9509 -13.7923 -13.0732 0
M  V30 169 C 12.8007 -13.9686 -12.0472 0
M  V30 170 N 12.6202 -15.0547 -11.1416 0
M  V30 171 N 13.8086 -13.0841 -11.9237 0
M  V30 172 N -15.0545 -11.1318 -12.6301 0
M  V30 173 C -13.9646 -12.0576 -12.7943 0
M  V30 174 N -13.7954 -13.0737 -11.9473 0
M  V30 175 C -12.7859 -13.9685 -12.0620 0
M  V30 176 N -12.6333 -15.0434 -11.1397 0
M  V30 177 N -11.9430 -13.7796 -13.0939 0
M  V30 178 C -12.0630 -12.7751 -13.9784 0
M  V30 179 N -11.1286 -12.6412 -15.0466 0
M  V30 180 N -13.0901 -11.9215 -13.8050 0
M  V30 181 C 19.1799 -4.4568 10.0805 0
M  V30 182 C 18.4553 -5.6297 10.5286 0
M  V30 183 C 19.0429 -6.5764 11.3382 0
M  V30 184 C 18.3486 -7.7034 11.7696 0
M  V30 185 C 17.0367 -7.9214 11.4031 0
M  V30 186 C 16.3106 -9.0994 11.8538 0
M  V30 187 C 16.4474 -6.9683 10.5889 0
M  V30 188 C 17.1355 -5.8508 10.1611 0
M  V30 189 H 20.1978 -4.3365 10.3950 0
M  V30 190 H 20.0663 -6.4311 11.6394 0
M  V30 191 H 18.8154 -8.4502 12.4094 0
M  V30 192 H 16.8063 -9.8086 12.4816 0
M  V30 193 H 15.4209 -7.1246 10.2934 0
M  V30 194 H 16.6719 -5.1130 9.5280 0
M  V30 195 C 19.1808 4.4503 10.0781 0
M  V30 196 C 18.4562 5.6232 10.5262 0
M  V30 197 C 19.0438 6.5700 11.3358 0
M  V30 198 C 18.3496 7.6969 11.7671 0
M  V30 199 C 17.0376 7.9149 11.4007 0
M  V30 200 C 16.3115 9.0929 11.8514 0
M  V30 201 C 16.4483 6.9617 10.5865 0
M  V30 202 C 17.1364 5.8443 10.1587 0
M  V30 203 H 20.1987 4.3300 10.3926 0
M  V30 204 H 20.0673 6.4247 11.6370 0
M  V30 205 H 18.8163 8.4437 12.4070 0
M  V30 206 H 16.8072 9.8022 12.4791 0
M  V30 207 H 15.4218 7.1181 10.2911 0
M  V30 208 H 16.6728 5.1064 9.5256 0
M  V30 209 C 21.9334 0.0065 2.8717 0
M  V30 210 C 21.9337 0.0065 1.4220 0
M  V30 211 C 23.1064 0.0068 0.6997 0
M  V30 212 C 23.1087 0.0068 -0.6925 0
M  V30 213 C 21.9315 0.0065 -1.4116 0
M  V30 214 C 21.9334 0.0065 -2.8669 0
M  V30 215 C 20.7531 0.0062 -0.6835 0
M  V30 216 C 20.7505 0.0062 0.6967 0
M  V30 217 H 22.8770 0.0067 3.3808 0
M  V30 218 H 24.0401 0.0071 1.2359 0
M  V30 219 H 24.0370 0.0071 -1.2610 0
M  V30 220 H 22.8675 0.0067 -3.3868 0
M  V30 221 H 19.8232 0.0060 -1.2319 0
M  V30 222 H 19.8309 0.0060 1.2576 0
M  V30 223 C -19.1799 -4.4568 10.0805 0
M  V30 224 C -18.4553 -5.6297 10.5286 0
M  V30 225 C -19.0429 -6.5765 11.3382 0
M  V30 226 C -18.3487 -7.7034 11.7695 0
M  V30 227 C -17.0367 -7.9214 11.4031 0
M  V30 228 C -16.3106 -9.0994 11.8538 0
M  V30 229 C -16.4474 -6.9682 10.5890 0
M  V30 230 C -17.1354 -5.8508 10.1612 0
M  V30 231 H -20.1978 -4.3365 10.3949 0
M  V30 232 H -20.0664 -6.4312 11.6393 0
M  V30 233 H -18.8154 -8.4503 12.4093 0
M  V30 234 H -16.8063 -9.8087 12.4815 0
M  V30 235 H -15.4209 -7.1245 10.2936 0
M  V30 236 H -16.6718 -5.1129 9.5281 0
M  V30 237 C -19.1824 4.4578 10.0741 0
M  V30 238 C -18.4578 5.6307 10.5222 0
M  V30 239 C -19.0454 6.5776 11.3315 0
M  V30 240 C -18.3512 7.7046 11.7628 0
M  V30 241 C -17.0392 7.9224 11.3967 0
M  V30 242 C -16.3131 9.1004 11.8474 0
M  V30 243 C -16.4497 6.9691 10.5827 0
M  V30 244 C -17.1378 5.8517 10.1549 0
M  V30 245 H -20.2003 4.3376 10.3883 0
M  V30 246 H -20.0690 6.4325 11.6325 0
M  V30 247 H -18.8180 8.4515 12.4025 0
M  V30 248 H -16.8089 9.8098 12.4749 0
M  V30 249 H -15.4232 7.1253 10.2874 0
M  V30 250 H -16.6742 5.1137 9.5220 0
M  V30 251 C -21.9319 -0.0010 2.8758 0
M  V30 252 C -21.9322 -0.0010 1.4261 0
M  V30 253 C -23.1049 -0.0010 0.7037 0
M  V30 254 C -23.1072 -0.0010 -0.6884 0
M  V30 255 C -21.9299 -0.0010 -1.4075 0
M  V30 256 C -21.9319 -0.0010 -2.8628 0
M  V30 257 C -20.7515 -0.0010 -0.6794 0
M  V30 258 C -20.7490 -0.0010 0.7008 0
M  V30 259 H -22.8754 -0.0010 3.3848 0
M  V30 260 H -24.0386 -0.0010 1.2400 0
M  V30 261 H -24.0355 -0.0010 -1.2569 0
M  V30 262 H -22.8659 -0.0010 -3.3828 0
M  V30 263 H -19.8216 -0.0010 -1.2278 0
M  V30 264 H -19.8294 -0.0010 1.2616 0
M  V30 265 C -19.1815 -4.4513 -10.0765 0
M  V30 266 C -18.4568 -5.6242 -10.5246 0
M  V30 267 C -19.0444 -6.5710 -11.3341 0
M  V30 268 C -18.3502 -7.6980 -11.7655 0
M  V30 269 C -17.0382 -7.9159 -11.3991 0
M  V30 270 C -16.3122 -9.0939 -11.8498 0
M  V30 271 C -16.4489 -6.9627 -10.5849 0
M  V30 272 C -17.1370 -5.8453 -10.1571 0
M  V30 273 H -20.1993 -4.3310 -10.3909 0
M  V30 274 H -20.0679 -6.4257 -11.6353 0
M  V30 275 H -18.8170 -8.4448 -12.4053 0
M  V30 276 H -16.8079 -9.8032 -12.4775 0
M  V30 277 H -15.4224 -7.1191 -10.2894 0
M  V30 278 H -16.6734 -5.1074 -9.5240 0
M  V30 279 C -19.1784 4.4513 -10.0846 0
M  V30 280 C -18.4537 5.6242 -10.5327 0
M  V30 281 C -19.0412 6.5708 -11.3425 0
M  V30 282 C -18.3470 7.6978 -11.7739 0
M  V30 283 C -17.0351 7.9159 -11.4072 0
M  V30 284 C -16.3091 9.0939 -11.8579 0
M  V30 285 C -16.4459 6.9629 -10.5928 0
M  V30 286 C -17.1340 5.8455 -10.1650 0
M  V30 287 H -20.1961 4.3309 -10.3992 0
M  V30 288 H -20.0647 6.4254 -11.6439 0
M  V30 289 H -18.8137 8.4445 -12.4139 0
M  V30 290 H -16.8047 9.8031 -12.4858 0
M  V30 291 H -15.4195 7.1193 -10.2971 0
M  V30 292 H -16.6705 5.1077 -9.5317 0
M  V30 293 C 19.1784 -4.4513 -10.0846 0
M  V30 294 C 18.4537 -5.6242 -10.5327 0
M  V30 295 C 19.0412 -6.5708 -11.3425 0
M  V30 296 C 18.3470 -7.6978 -11.7739 0
M  V30 297 C 17.0351 -7.9159 -11.4072 0
M  V30 298 C 16.3091 -9.0939 -11.8579 0
M  V30 299 C 16.4459 -6.9629 -10.5928 0
M  V30 300 C 17.1340 -5.8455 -10.1650 0
M  V30 301 H 20.1961 -4.3309 -10.3992 0
M  V30 302 H 20.0647 -6.4254 -11.6439 0
M  V30 303 H 18.8137 -8.4445 -12.4139 0
M  V30 304 H 16.8047 -9.8031 -12.4858 0
M  V30 305 H 15.4195 -7.1193 -10.2971 0
M  V30 306 H 16.6705 -5.1077 -9.5317 0
M  V30 307 C 19.1815 4.4513 -10.0765 0
M  V30 308 C 18.4568 5.6242 -10.5246 0
M  V30 309 C 19.0444 6.5710 -11.3341 0
M  V30 310 C 18.3502 7.6980 -11.7655 0
M  V30 311 C 17.0382 7.9159 -11.3991 0
M  V30 312 C 16.3122 9.0939 -11.8498 0
M  V30 313 C 16.4489 6.9627 -10.5849 0
M  V30 314 C 17.1370 5.8453 -10.1571 0
M  V30 315 H 20.1993 4.3310 -10.3909 0
M  V30 316 H 20.0679 6.4257 -11.6353 0
M  V30 317 H 18.8170 8.4448 -12.4053 0
M  V30 318 H 16.8079 9.8032 -12.4775 0
M  V30 319 H 15.4224 7.1191 -10.2894 0
M  V30 320 H 16.6734 5.1074 -9.5240 0
M  V30 321 C 10.0755 19.1800 4.4617 0
M  V30 322 C 10.5237 18.4553 5.6346 0
M  V30 323 C 11.3329 19.0431 6.5816 0
M  V30 324 C 11.7643 18.3488 7.7085 0
M  V30 325 C 11.3982 17.0367 7.9263 0
M  V30 326 C 11.8489 16.3107 9.1043 0
M  V30 327 C 10.5843 16.4473 6.9729 0
M  V30 328 C 10.1565 17.1354 5.8555 0
M  V30 329 H 10.3897 20.1979 4.3416 0
M  V30 330 H 11.6338 20.0666 6.4365 0
M  V30 331 H 12.4038 18.8157 8.4555 0
M  V30 332 H 12.4763 16.8065 9.8138 0
M  V30 333 H 10.2891 15.4207 7.1291 0
M  V30 334 H 9.5237 16.6717 5.1175 0
M  V30 335 C 2.8758 21.9319 0.0010 0
M  V30 336 C 1.4261 21.9322 0.0010 0
M  V30 337 C 0.7037 23.1049 0.0010 0
M  V30 338 C -0.6884 23.1072 0.0010 0
M  V30 339 C -1.4075 21.9299 0.0010 0
M  V30 340 C -2.8628 21.9319 0.0010 0
M  V30 341 C -0.6794 20.7515 0.0010 0
M  V30 342 C 0.7008 20.7490 0.0010 0
M  V30 343 H 3.3848 22.8754 0.0010 0
M  V30 344 H 1.2400 24.0386 0.0010 0
M  V30 345 H -1.2569 24.0355 0.0010 0
M  V30 346 H -3.3828 22.8659 0.0010 0
M  V30 347 H -1.2278 19.8216 0.0010 0
M  V30 348 H 1.2616 19.8294 0.0010 0
M  V30 349 C 10.0756 19.1768 -4.4618 0
M  V30 350 C 10.5237 18.4522 -5.6347 0
M  V30 351 C 11.3331 19.0399 -6.5816 0
M  V30 352 C 11.7645 18.3457 -7.7085 0
M  V30 353 C 11.3982 17.0336 -7.9264 0
M  V30 354 C 11.8490 16.3076 -9.1044 0
M  V30 355 C 10.5843 16.4442 -6.9731 0
M  V30 356 C 10.1565 17.1323 -5.8557 0
M  V30 357 H 10.3899 20.1948 -4.3416 0
M  V30 358 H 11.6341 20.0634 -6.4364 0
M  V30 359 H 12.4041 18.8125 -8.4554 0
M  V30 360 H 12.4765 16.8033 -9.8137 0
M  V30 361 H 10.2889 15.4177 -7.1293 0
M  V30 362 H 9.5235 16.6686 -5.1177 0
M  V30 363 C 2.8693 -21.9344 0.0000 0
M  V30 364 C 1.4196 -21.9346 -0.0000 0
M  V30 365 C 0.6973 -23.1074 0.0000 0
M  V30 366 C -0.6949 -23.1096 0.0000 0
M  V30 367 C -1.4140 -21.9324 -0.0000 0
M  V30 368 C -2.8693 -21.9344 0.0000 0
M  V30 369 C -0.6859 -20.7540 -0.0001 0
M  V30 370 C 0.6943 -20.7514 -0.0001 0
M  V30 371 H 3.3784 -22.8779 0.0000 0
M  V30 372 H 1.2335 -24.0411 0.0001 0
M  V30 373 H -1.2634 -24.0379 0.0001 0
M  V30 374 H -3.3892 -22.8684 0.0001 0
M  V30 375 H -1.2343 -19.8241 -0.0001 0
M  V30 376 H 1.2551 -19.8318 -0.0001 0
M  V30 377 C 10.0796 -19.1784 -4.4562 0
M  V30 378 C 10.5277 -18.4538 -5.6291 0
M  V30 379 C 11.3373 -19.0414 -6.5759 0
M  V30 380 C 11.7686 -18.3472 -7.7029 0
M  V30 381 C 11.4022 -17.0352 -7.9208 0
M  V30 382 C 11.8529 -16.3091 -9.0988 0
M  V30 383 C 10.5881 -16.4459 -6.9676 0
M  V30 384 C 10.1603 -17.1339 -5.8502 0
M  V30 385 H 10.3940 -20.1963 -4.3360 0
M  V30 386 H 11.6384 -20.0649 -6.4307 0
M  V30 387 H 12.4084 -18.8139 -8.4497 0
M  V30 388 H 12.4806 -16.8048 -9.8081 0
M  V30 389 H 10.2926 -15.4194 -7.1239 0
M  V30 390 H 9.5272 -16.6703 -5.1123 0
M  V30 391 C 10.0781 -19.1759 4.4553 0
M  V30 392 C 10.5262 -18.4513 5.6282 0
M  V30 393 C 11.3358 -19.0389 6.5749 0
M  V30 394 C 11.7671 -18.3446 7.7019 0
M  V30 395 C 11.4007 -17.0327 7.9199 0
M  V30 396 C 11.8514 -16.3066 9.0979 0
M  V30 397 C 10.5864 -16.4434 6.9667 0
M  V30 398 C 10.1586 -17.1315 5.8493 0
M  V30 399 H 10.3925 -20.1938 4.3350 0
M  V30 400 H 11.6370 -20.0624 6.4296 0
M  V30 401 H 12.4070 -18.8114 8.4487 0
M  V30 402 H 12.4791 -16.8023 9.8071 0
M  V30 403 H 10.2909 -15.4169 7.1231 0
M  V30 404 H 9.5255 -16.6679 5.1115 0
M  V30 405 C -10.0796 -19.1784 4.4562 0
M  V30 406 C -10.5277 -18.4538 5.6291 0
M  V30 407 C -11.3373 -19.0414 6.5759 0
M  V30 408 C -11.7686 -18.3472 7.7029 0
M  V30 409 C -11.4022 -17.0352 7.9208 0
M  V30 410 C -11.8529 -16.3091 9.0988 0
M  V30 411 C -10.5881 -16.4459 6.9676 0
M  V30 412 C -10.1603 -17.1339 5.8502 0
M  V30 413 H -10.3940 -20.1963 4.3360 0
M  V30 414 H -11.6384 -20.0649 6.4307 0
M  V30 415 H -12.4084 -18.8139 8.4497 0
M  V30 416 H -12.4806 -16.8048 9.8081 0
M  V30 417 H -10.2926 -15.4194 7.1239 0
M  V30 418 H -9.5272 -16.6703 5.1123 0
M  V30 419 C -10.0781 -19.1759 -4.4553 0
M  V30 420 C -10.5262 -18.4513 -5.6282 0
M  V30 421 C -11.3358 -19.0389 -6.5749 0
M  V30 422 C -11.7671 -18.3446 -7.7019 0
M  V30 423 C -11.4007 -17.0327 -7.9199 0
M  V30 424 C -11.8514 -16.3066 -9.0979 0
M  V30 425 C -10.5864 -16.4434 -6.9667 0
M  V30 426 C -10.1586 -17.1315 -5.8493 0
M  V30 427 H -10.3925 -20.1938 -4.3350 0
M  V30 428 H -11.6370 -20.0624 -6.4296 0
M  V30 429 H -12.4070 -18.8114 -8.4487 0
M  V30 430 H -12.4791 -16.8023 -9.8071 0
M  V30 431 H -10.2909 -15.4169 -7.1231 0
M  V30 432 H -9.5255 -16.6679 -5.1115 0
M  V30 433 C -10.0781 19.1759 4.4553 0
M  V30 434 C -10.5262 18.4513 5.6282 0
M  V30 435 C -11.3358 19.0389 6.5749 0
M  V30 436 C -11.7671 18.3446 7.7019 0
M  V30 437 C -11.4007 17.0327 7.9199 0
M  V30 438 C -11.8514 16.3066 9.0979 0
M  V30 439 C -10.5864 16.4434 6.9667 0
M  V30 440 C -10.1586 17.1315 5.8493 0
M  V30 441 H -10.3925 20.1938 4.3350 0
M  V30 442 H -11.6370 20.0624 6.4296 0
M  V30 443 H -12.4070 18.8114 8.4487 0
M  V30 444 H -12.4791 16.8023 9.8071 0
M  V30 445 H -10.2909 15.4169 7.1231 0
M  V30 446 H -9.5255 16.6679 5.1115 0
M  V30 447 C -10.0796 19.1784 -4.4562 0
M  V30 448 C -10.5277 18.4538 -5.6291 0
M  V30 449 C -11.3373 19.0414 -6.5759 0
M  V30 450 C -11.7686 18.3472 -7.7029 0
M  V30 451 C -11.4022 17.0352 -7.9208 0
M  V30 452 C -11.8529 16.3091 -9.0988 0
M  V30 453 C -10.5881 16.4459 -6.9676 0
M  V30 454 C -10.1603 17.1339 -5.8502 0
M  V30 455 H -10.3940 20.1963 -4.3360 0
M  V30 456 H -11.6384 20.0649 -6.4307 0
M  V30 457 H -12.4084 18.8139 -8.4497 0
M  V30 458 H -12.4806 16.8048 -9.8081 0
M  V30 459 H -10.2926 15.4194 -7.1239 0
M  V30 460 H -9.5272 16.6703 -5.1123 0
M  V30 461 C 0.0000 2.8693 21.9344 0
M  V30 462 C 0.0000 1.4196 21.9346 0
M  V30 463 C -0.0000 0.6973 23.1074 0
M  V30 464 C -0.0000 -0.6949 23.1096 0
M  V30 465 C 0.0000 -1.4140 21.9324 0
M  V30 466 C 0.0000 -2.8693 21.9344 0
M  V30 467 C 0.0001 -0.6859 20.7540 0
M  V30 468 C 0.0001 0.6943 20.7514 0
M  V30 469 H -0.0000 3.3784 22.8779 0
M  V30 470 H -0.0001 1.2335 24.0411 0
M  V30 471 H -0.0001 -1.2634 24.0379 0
M  V30 472 H -0.0001 -3.3892 22.8684 0
M  V30 473 H 0.0001 -1.2343 19.8241 0
M  V30 474 H 0.0001 1.2551 19.8318 0
M  V30 475 C 4.4563 10.0845 19.1735 0
M  V30 476 C 5.6292 10.5326 18.4488 0
M  V30 477 C 6.5758 11.3424 19.0363 0
M  V30 478 C 7.7028 11.7738 18.3421 0
M  V30 479 C 7.9209 11.4071 17.0302 0
M  V30 480 C 9.0989 11.8578 16.3042 0
M  V30 481 C 6.9678 10.5927 16.4410 0
M  V30 482 C 5.8504 10.1650 17.1290 0
M  V30 483 H 4.3359 10.3991 20.1912 0
M  V30 484 H 6.4305 11.6437 20.0598 0
M  V30 485 H 8.4495 12.4137 18.8088 0
M  V30 486 H 9.8081 12.4857 16.7998 0
M  V30 487 H 7.1243 10.2971 15.4146 0
M  V30 488 H 5.1126 9.5317 16.6655 0
M  V30 489 C -4.4497 10.0820 19.1775 0
M  V30 490 C -5.6226 10.5301 18.4529 0
M  V30 491 C -6.5692 11.3400 19.0404 0
M  V30 492 C -7.6962 11.7713 18.3461 0
M  V30 493 C -7.9144 11.4046 17.0343 0
M  V30 494 C -9.0923 11.8553 16.3082 0
M  V30 495 C -6.9613 10.5901 16.4451 0
M  V30 496 C -5.8439 10.1624 17.1331 0
M  V30 497 H -4.3293 10.3967 20.1953 0
M  V30 498 H -6.4238 11.6413 20.0638 0
M  V30 499 H -8.4429 12.4113 18.8128 0
M  V30 500 H -9.8015 12.4833 16.8038 0
M  V30 501 H -7.1178 10.2945 15.4187 0
M  V30 502 H -5.1062 9.5290 16.6696 0
M  V30 503 C 0.0000 2.8693 -21.9344 0
M  V30 504 C -0.0000 1.4196 -21.9346 0
M  V30 505 C 0.0000 0.6973 -23.1074 0
M  V30 506 C 0.0000 -0.6949 -23.1096 0
M  V30 507 C -0.0000 -1.4140 -21.9324 0
M  V30 508 C 0.0000 -2.8693 -21.9344 0
M  V30 509 C -0.0001 -0.6859 -20.7540 0
M  V30 510 C -0.0001 0.6943 -20.7514 0
M  V30 511 H 0.0000 3.3784 -22.8779 0
M  V30 512 H 0.0001 1.2335 -24.0411 0
M  V30 513 H 0.0001 -1.2634 -24.0379 0
M  V30 514 H 0.0001 -3.3892 -22.8684 0
M  V30 515 H -0.0001 -1.2343 -19.8241 0
M  V30 516 H -0.0001 1.2551 -19.8318 0
M  V30 517 C 4.4497 10.0820 -19.1775 0
M  V30 518 C 5.6226 10.5301 -18.4529 0
M  V30 519 C 6.5692 11.3400 -19.0404 0
M  V30 520 C 7.6962 11.7713 -18.3461 0
M  V30 521 C 7.9144 11.4046 -17.0343 0
M  V30 522 C 9.0923 11.8553 -16.3082 0
M  V30 523 C 6.9613 10.5901 -16.4451 0
M  V30 524 C 5.8439 10.1624 -17.1331 0
M  V30 525 H 4.3293 10.3967 -20.1953 0
M  V30 526 H 6.4238 11.6413 -20.0638 0
M  V30 527 H 8.4429 12.4113 -18.8128 0
M  V30 528 H 9.8015 12.4833 -16.8038 0
M  V30 529 H 7.1178 10.2945 -15.4187 0
M  V30 530 H 5.1062 9.5290 -16.6696 0
M  V30 531 C -4.4563 10.0845 -19.1735 0
M  V30 532 C -5.6292 10.5326 -18.4488 0
M  V30 533 C -6.5758 11.3424 -19.0363 0
M  V30 534 C -7.7028 11.7738 -18.3421 0
M  V30 535 C -7.9209 11.4071 -17.0302 0
M  V30 536 C -9.0989 11.8578 -16.3042 0
M  V30 537 C -6.9678 10.5927 -16.4410 0
M  V30 538 C -5.8504 10.1650 -17.1290 0
M  V30 539 H -4.3359 10.3991 -20.1912 0
M  V30 540 H -6.4305 11.6437 -20.0598 0
M  V30 541 H -8.4495 12.4137 -18.8088 0
M  V30 542 H -9.8081 12.4857 -16.7998 0
M  V30 543 H -7.1243 10.2971 -15.4146 0
M  V30 544 H -5.1126 9.5317 -16.6655 0
M  V30 545 C 4.4563 -10.0845 -19.1735 0
M  V30 546 C 5.6292 -10.5326 -18.4488 0
M  V30 547 C 6.5758 -11.3424 -19.0363 0
M  V30 548 C 7.7028 -11.7738 -18.3421 0
M  V30 549 C 7.9209 -11.4071 -17.0302 0
M  V30 550 C 9.0989 -11.8578 -16.3042 0
M  V30 551 C 6.9678 -10.5927 -16.4410 0
M  V30 552 C 5.8504 -10.1650 -17.1290 0
M  V30 553 H 4.3359 -10.3991 -20.1912 0
M  V30 554 H 6.4305 -11.6437 -20.0598 0
M  V30 555 H 8.4495 -12.4137 -18.8088 0
M  V30 556 H 9.8081 -12.4857 -16.7998 0
M  V30 557 H 7.1243 -10.2971 -15.4146 0
M  V30 558 H 5.1126 -9.5317 -16.6655 0
M  V30 559 C -4.4497 -10.0820 -19.1775 0
M  V30 560 C -5.6226 -10.5301 -18.4529 0
M  V30 561 C -6.5692 -11.3400 -19.0404 0
M  V30 562 C -7.6962 -11.7713 -18.3461 0
M  V30 563 C -7.9144 -11.4046 -17.0343 0
M  V30 564 C -9.0923 -11.8553 -16.3082 0
M  V30 565 C -6.9613 -10.5901 -16.4451 0
M  V30 566 C -5.8439 -10.1624 -17.1331 0
M  V30 567 H -4.3293 -10.3967 -20.1953 0
M  V30 568 H -6.4238 -11.6413 -20.0638 0
M  V30 569 H -8.4429 -12.4113 -18.8128 0
M  V30 570 H -9.8015 -12.4833 -16.8038 0
M  V30 571 H -7.1178 -10.2945 -15.4187 0
M  V30 572 H -5.1062 -9.5290 -16.6696 0
M  V30 573 C -4.4563 -10.0845 19.1735 0
M  V30 574 C -5.6292 -10.5326 18.4488 0
M  V30 575 C -6.5758 -11.3424 19.0363 0
M  V30 576 C -7.7028 -11.7738 18.3421 0
M  V30 577 C -7.9209 -11.4071 17.0302 0
M  V30 578 C -9.0989 -11.8578 16.3042 0
M  V30 579 C -6.9678 -10.5927 16.4410 0
M  V30 580 C -5.8504 -10.1650 17.1290 0
M  V30 581 H -4.3359 -10.3991 20.1912 0
M  V30 582 H -6.4305 -11.6437 20.0598 0
M  V30 583 H -8.4495 -12.4137 18.8088 0
M  V30 584 H -9.8081 -12.4857 16.7998 0
M  V30 585 H -7.1243 -10.2971 15.4146 0
M  V30 586 H -5.1126 -9.5317 16.6655 0
M  V30 587 C 4.4497 -10.0820 19.1775 0
M  V30 588 C 5.6226 -10.5301 18.4529 0
M  V30 589 C 6.5692 -11.3400 19.0404 0
M  V30 590 C 7.6962 -11.7713 18.3461 0
M  V30 591 C 7.9144 -11.4046 17.0343 0
M  V30 592 C 9.0923 -11.8553 16.3082 0
M  V30 593 C 6.9613 -10.5901 16.4451 0
M  V30 594 C 5.8439 -10.1624 17.1331 0
M  V30 595 H 4.3293 -10.3967 20.1953 0
M  V30 596 H 6.4238 -11.6413 20.0638 0
M  V30 597 H 8.4429 -12.4113 18.8128 0
M  V30 598 H 9.8015 -12.4833 16.8038 0
M  V30 599 H 7.1178 -10.2945 15.4187 0
M  V30 600 H 5.1062 -9.5290 16.6696 0
M  V30 END ATOM
M  V30 BEGIN BOND
M  V30 1 1 1 2
M  V30 2 2 2 3
M  V30 3 1 3 4
M  V30 4 1 4 5
M  V30 5 2 4 6
M  V30 6 1 6 7
M  V30 7 1 7 8
M  V30 8 2 7 9
M  V30 9 1 9 2
M  V30 10 1 10 11
M  V30 11 2 11 12
M  V30 12 1 12 13
M  V30 13 1 13 14
M  V30 14 2 13 15
M  V30 15 1 15 16
M  V30 16 1 16 17
M  V30 17 2 16 18
M  V30 18 1 18 11
M  V30 19 1 19 20
M  V30 20 2 20 21
M  V30 21 1 21 22
M  V30 22 1 22 23
M  V30 23 2 22 24
M  V30 24 1 24 25
M  V30 25 1 25 26
M  V30 26 2 25 27
M  V30 27 1 27 20
M  V30 28 1 28 29
M  V30 29 2 29 30
M  V30 30 1 30 31
M  V30 31 1 31 32
M  V30 32 2 31 33
M  V30 33 1 33 34
M  V30 34 1 34 35
M  V30 35 2 34 36
M  V30 36 1 36 29
M  V30 37 1 37 38
M  V30 38 2 38 39
M  V30 39 1 39 40
M  V30 40 1 40 41
M  V30 41 2 40 42
M  V30 42 1 42 43
M  V30 43 1 43 44
M  V30 44 2 43 45
M  V30 45 1 45 38
M  V30 46 1 46 47
M  V30 47 2 47 48
M  V30 48 1 48 49
M  V30 49 1 49 50
M  V30 50 2 49 51
M  V30 51 1 51 52
M  V30 52 1 52 53
M  V30 53 2 52 54
M  V30 54 1 54 47
M  V30 55 1 55 56
M  V30 56 2 56 57
M  V30 57 1 57 58
M  V30 58 1 58 59
M  V30 59 2 58 60
M  V30 60 1 60 61
M  V30 61 1 61 62
M  V30 62 2 61 63
M  V30 63 1 63 56
M  V30 64 1 64 65
M  V30 65 2 65 66
M  V30 66 1 66 67
M  V30 67 1 67 68
M  V30 68 2 67 69
M  V30 69 1 69 70
M  V30 70 1 70 71
M  V30 71 2 70 72
M  V30 72 1 72 65
M  V30 73 1 73 74
M  V30 74 2 74 75
M  V30 75 1 75 76
M  V30 76 1 76 77
M  V30 77 2 76 78
M  V30 78 1 78 79
M  V30 79 1 79 80
M  V30 80 2 79 81
M  V30 81 1 81 74
M  V30 82 1 82 83
M  V30 83 2 83 84
M  V30 84 1 84 85
M  V30 85 1 85 86
M  V30 86 2 85 87
M  V30 87 1 87 88
M  V30 88 1 88 89
M  V30 89 2 88 90
M  V30 90 1 90 83
M  V30 91 1 91 92
M  V30 92 2 92 93
M  V30 93 1 93 94
M  V30 94 1 94 95
M  V30 95 2 94 96
M  V30 96 1 96 97
M  V30 97 1 97 98
M  V30 98 2 97 99
M  V30 99 1 99 92
M  V30 100 1 100 101
M  V30 101 2 101 102
M  V30 102 1 102 103
M  V30 103 1 103 104
M  V30 104 2 103 105
M  V30 105 1 105 106
M  V30 106 1 106 107
M  V30 107 2 106 108
M  V30 108 1 108 101
M  V30 109 1 109 110
M  V30 110 2 110 111
M  V30 111 1 111 112
M  V30 112 1 112 113
M  V30 113 2 112 114
M  V30 114 1 114 115
M  V30 115 1 115 116
M  V30 116 2 115 117
M  V30 117 1 117 110
M  V30 118 1 118 119
M  V30 119 2 119 120
M  V30 120 1 120 121
M  V30 121 1 121 122
M  V30 122 2 121 123
M  V30 123 1 123 124
M  V30 124 1 124 125
M  V30 125 2 124 126
M  V30 126 1 126 119
M  V30 127 1 127 128
M  V30 128 2 128 129
M  V30 129 1 129 130
M  V30 130 1 130 131
M  V30 131 2 130 132
M  V30 132 1 132 133
M  V30 133 1 133 134
M  V30 134 2 133 135
M  V30 135 1 135 128
M  V30 136 1 136 137
M  V30 137 2 137 138
M  V30 138 1 138 139
M  V30 139 1 139 140
M  V30 140 2 139 141
M  V30 141 1 141 142
M  V30 142 1 142 143
M  V30 143 2 142 144
M  V30 144 1 144 137
M  V30 145 1 145 146
M  V30 146 2 146 147
M  V30 147 1 147 148
M  V30 148 1 148 149
M  V30 149 2 148 150
M  V30 150 1 150 151
M  V30 151 1 151 152
M  V30 152 2 151 153
M  V30 153 1 153 146
M  V30 154 1 154 155
M  V30 155 2 155 156
M  V30 156 1 156 157
M  V30 157 1 157 158
M  V30 158 2 157 159
M  V30 159 1 159 160
M  V30 160 1 160 161
M  V30 161 2 160 162
M  V30 162 1 162 155
M  V30 163 1 163 164
M  V30 164 2 164 165
M  V30 165 1 165 166
M  V30 166 1 166 167
M  V30 167 2 166 168
M  V30 168 1 168 169
M  V30 169 1 169 170
M  V30 170 2 169 171
M  V30 171 1 171 164
M  V30 172 1 172 173
M  V30 173 2 173 174
M  V30 174 1 174 175
M  V30 175 1 175 176
M  V30 176 2 175 177
M  V30 177 1 177 178
M  V30 178 1 178 179
M  V30 179 2 178 180
M  V30 180 1 180 173
M  V30 181 1 181 182
M  V30 182 2 182 183
M  V30 183 1 183 184
M  V30 184 2 184 185
M  V30 185 1 185 186
M  V30 186 1 185 187
M  V30 187 2 187 188
M  V30 188 1 188 182
M  V30 189 1 181 189
M  V30 190 1 183 190
M  V30 191 1 184 191
M  V30 192 1 186 192
M  V30 193 1 187 193
M  V30 194 1 188 194
M  V30 195 1 195 196
M  V30 196 2 196 197
M  V30 197 1 197 198
M  V30 198 2 198 199
M  V30 199 1 199 200
M  V30 200 1 199 201
M  V30 201 2 201 202
M  V30 202 1 202 196
M  V30 203 1 195 203
M  V30 204 1 197 204
M  V30 205 1 198 205
M  V30 206 1 200 206
M  V30 207 1 201 207
M  V30 208 1 202 208
M  V30 209 1 209 210
M  V30 210 2 210 211
M  V30 211 1 211 212
M  V30 212 2 212 213
M  V30 213 1 213 214
M  V30 214 1 213 215
M  V30 215 2 215 216
M  V30 216 1 216 210
M  V30 217 1 209 217
M  V30 218 1 211 218
M  V30 219 1 212 219
M  V30 220 1 214 220
M  V30 221 1 215 221
M  V30 222 1 216 222
M  V30 223 1 223 224
M  V30 224 2 224 225
M  V30 225 1 225 226
M  V30 226 2 226 227
M  V30 227 1 227 228
M  V30 228 1 227 229
M  V30 229 2 229 230
M  V30 230 1 230 224
M  V30 231 1 223 231
M  V30 232 1 225 232
M  V30 233 1 226 233
M  V30 234 1 228 234
M  V30 235 1 229 235
M  V30 236 1 230 236
M  V30 237 1 237 238
M  V30 238 2 238 239
M  V30 239 1 239 240
M  V30 240 2 240 241
M  V30 241 1 241 242
M  V30 242 1 241 243
M  V30 243 2 243 244
M  V30 244 1 244 238
M  V30 245 1 237 245
M  V30 246 1 239 246
M  V30 247 1 240 247
M  V30 248 1 242 248
M  V30 249 1 243 249
M  V30 250 1 244 250
M  V30 251 1 251 252
M  V30 252 2 252 253
M  V30 253 1 253 254
M  V30 254 2 254 255
M  V30 255 1 255 256
M  V30 256 1 255 257
M  V30 257 2 257 258
M  V30 258 1 258 252
M  V30 259 1 251 259
M  V30 260 1 253 260
M  V30 261 1 254 261
M  V30 262 1 256 262
M  V30 263 1 257 263
M  V30 264 1 258 264
M  V30 265 1 265 266
M  V30 266 2 266 267
M  V30 267 1 267 268
M  V30 268 2 268 269
M  V30 269 1 269 270
M  V30 270 1 269 271
M  V30 271 2 271 272
M  V30 272 1 272 266
M  V30 273 1 265 273
M  V30 274 1 267 274
M  V30 275 1 268 275
M  V30 276 1 270 276
M  V30 277 1 271 277
M  V30 278 1 272 278
M  V30 279 1 279 280
M  V30 280 2 280 281
M  V30 281 1 281 282
M  V30 282 2 282 283
M  V30 283 1 283 284
M  V30 284 1 283 285
M  V30 285 2 285 286
M  V30 286 1 286 280
M  V30 287 1 279 287
M  V30 288 1 281 288
M  V30 289 1 282 289
M  V30 290 1 284 290
M  V30 291 1 285 291
M  V30 292 1 286 292
M  V30 293 1 293 294
M  V30 294 2 294 295
M  V30 295 1 295 296
M  V30 296 2 296 297
M  V30 297 1 297 298
M  V30 298 1 297 299
M  V30 299 2 299 300
M  V30 300 1 300 294
M  V30 301 1 293 301
M  V30 302 1 295 302
M  V30 303 1 296 303
M  V30 304 1 298 304
M  V30 305 1 299 305
M  V30 306 1 300 306
M  V30 307 1 307 308
M  V30 308 2 308 309
M  V30 309 1 309 310
M  V30 310 2 310 311
M  V30 311 1 311 312
M  V30 312 1 311 313
M  V30 313 2 313 314
M  V30 314 1 314 308
M  V30 315 1 307 315
M  V30 316 1 309 316
M  V30 317 1 310 317
M  V30 318 1 312 318
M  V30 319 1 313 319
M  V30 320 1 314 320
M  V30 321 1 321 322
M  V30 322 2 322 323
M  V30 323 1 323 324
M  V30 324 2 324 325
M  V30 325 1 325 326
M  V30 326 1 325 327
M  V30 327 2 327 328
M  V30 328 1 328 322
M  V30 329 1 321 329
M  V30 330 1 323 330
M  V30 331 1 324 331
M  V30 332 1 326 332
M  V30 333 1 327 333
M  V30 334 1 328 334
M  V30 335 1 335 336
M  V30 336 2 336 337
M  V30 337 1 337 338
M  V30 338 2 338 339
M  V30 339 1 339 340
M  V30 340 1 339 341
M  V30 341 2 341 342
M  V30 342 1 342 336
M  V30 343 1 335 343
M  V30 344 1 337 344
M  V30 345 1 338 345
M  V30 346 1 340 346
M  V30 347 1 341 347
M  V30 348 1 342 348
M  V30 349 1 349 350
M  V30 350 2 350 351
M  V30 351 1 351 352
M  V30 352 2 352 353
M  V30 353 1 353 354
M  V30 354 1 353 355
M  V30 355 2 355 356
M  V30 356 1 356 350
M  V30 357 1 349 357
M  V30 358 1 351 358
M  V30 359 1 352 359
M  V30 360 1 354 360
M  V30 361 1 355 361
M  V30 362 1 356 362
M  V30 363 1 363 364
M  V30 364 2 364 365
M  V30 365 1 365 366
M  V30 366 2 366 367
M  V30 367 1 367 368
M  V30 368 1 367 369
M  V30 369 2 369 370
M  V30 370 1 370 364
M  V30 371 1 363 371
M  V30 372 1 365 372
M  V30 373 1 366 373
M  V30 374 1 368 374
M  V30 375 1 369 375
M  V30 376 1 370 376
M  V30 377 1 377 378
M  V30 378 2 378 379
M  V30 379 1 379 380
M  V30 380 2 380 381
M  V30 381 1 381 382
M  V30 382 1 381 383
M  V30 383 2 383 384
M  V30 384 1 384 378
M  V30 385 1 377 385
M  V30 386 1 379 386
M  V30 387 1 380 387
M  V30 388 1 382 388
M  V30 389 1 383 389
M  V30 390 1 384 390
M  V30 391 1 391 392
M  V30 392 2 392 393
M  V30 393 1 393 394
M  V30 394 2 394 395
M  V30 395 1 395 396
M  V30 396 1 395 397
M  V30 397 2 397 398
M  V30 398 1 398 392
M  V30 399 1 391 399
M  V30 400 1 393 400
M  V30 401 1 394 401
M  V30 402 1 396 402
M  V30 403 1 397 403
M  V30 404 1 398 404
M  V30 405 1 405 406
M  V30 406 2 406 407
M  V30 407 1 407 408
M  V30 408 2 408 409
M  V30 409 1 409 410
M  V30 410 1 409 411
M  V30 411 2 411 412
M  V30 412 1 412 406
M  V30 413 1 405 413
M  V30 414 1 407 414
M  V30 415 1 408 415
M  V30 416 1 410 416
M  V30 417 1 411 417
M  V30 418 1 412 418
M  V30 419 1 419 420
M  V30 420 2 420 421
M  V30 421 1 421 422
M  V30 422 2 422 423
M  V30 423 1 423 424
M  V30 424 1 423 425
M  V30 425 2 425 426
M  V30 426 1 426 420
M  V30 427 1 419 427
M  V30 428 1 421 428
M  V30 429 1 422 429
M  V30 430 1 424 430
M  V30 431 1 425 431
M  V30 432 1 426 432
M  V30 433 1 433 434
M  V30 434 2 434 435
M  V30 435 1 435 436
M  V30 436 2 436 437
M  V30 437 1 437 438
M  V30 438 1 437 439
M  V30 439 2 439 440
M  V30 440 1 440 434
M  V30 441 1 433 441
M  V30 442 1 435 442
M  V30 443 1 436 443
M  V30 444 1 438 444
M  V30 445 1 439 445
M  V30 446 1 440 446
M  V30 447 1 447 448
M  V30 448 2 448 449
M  V30 449 1 449 450
M  V30 450 2 450 451
M  V30 451 1 451 452
M  V30 452 1 451 453
M  V30 453 2 453 454
M  V30 454 1 454 448
M  V30 455 1 447 455
M  V30 456 1 449 456
M  V30 457 1 450 457
M  V30 458 1 452 458
M  V30 459 1 453 459
M  V30 460 1 454 460
M  V30 461 1 461 462
M  V30 462 2 462 463
M  V30 463 1 463 464
M  V30 464 2 464 465
M  V30 465 1 465 466
M  V30 466 1 465 467
M  V30 467 2 467 468
M  V30 468 1 468 462
M  V30 469 1 461 469
M  V30 470 1 463 470
M  V30 471 1 464 471
M  V30 472 1 466 472
M  V30 473 1 467 473
M  V30 474 1 468 474
M  V30 475 1 475 476
M  V30 476 2 476 477
M  V30 477 1 477 478
M  V30 478 2 478 479
M  V30 479 1 479 480
M  V30 480 1 479 481
M  V30 481 2 481 482
M  V30 482 1 482 476
M  V30 483 1 475 483
M  V30 484 1 477 484
M  V30 485 1 478 485
M  V30 486 1 480 486
M  V30 487 1 481 487
M  V30 488 1 482 488
M  V30 489 1 489 490
M  V30 490 2 490 491
M  V30 491 1 491 492
M  V30 492 2 492 493
M  V30 493 1 493 494
M  V30 494 1 493 495
M  V30 495 2 495 496
M  V30 496 1 496 490
M  V30 497 1 489 497
M  V30 498 1 491 498
M  V30 499 1 492 499
M  V30 500 1 494 500
M  V30 501 1 495 501
M  V30 502 1 496 502
M  V30 503 1 503 504
M  V30 504 2 504 505
M  V30 505 1 505 506
M  V30 506 2 506 507
M  V30 507 1 507 508
M  V30 508 1 507 509
M  V30 509 2 509 510
M  V30 510 1 510 504
M  V30 511 1 503 511
M  V30 512 1 505 512
M  V30 513 1 506 513
M  V30 514 1 508 514
M  V30 515 1 509 515
M  V30 516 1 510 516
M  V30 517 1 517 518
M  V30 518 2 518 519
M  V30 519 1 519 520
M  V30 520 2 520 521
M  V30 521 1 521 522
M  V30 522 1 521 523
M  V30 523 2 523 524
M  V30 524 1 524 518
M  V30 525 1 517 525
M  V30 526 1 519 526
M  V30 527 1 520 527
M  V30 528 1 522 528
M  V30 529 1 523 529
M  V30 530 1 524 530
M  V30 531 1 531 532
M  V30 532 2 532 533
M  V30 533 1 533 534
M  V30 534 2 534 535
M  V30 535 1 535 536
M  V30 536 1 535 537
M  V30 537 2 537 538
M  V30 538 1 538 532
M  V30 539 1 531 539
M  V30 540 1 533 540
M  V30 541 1 534 541
M  V30 542 1 536 542
M  V30 543 1 537 543
M  V30 544 1 538 544
M  V30 545 1 545 546
M  V30 546 2 546 547
M  V30 547 1 547 548
M  V30 548 2 548 549
M  V30 549 1 549 550
M  V30 550 1 549 551
M  V30 551 2 551 552
M  V30 552 1 552 546
M  V30 553 1 545 553
M  V30 554 1 547 554
M  V30 555 1 548 555
M  V30 556 1 550 556
M  V30 557 1 551 557
M  V30 558 1 552 558
M  V30 559 1 559 560
M  V30 560 2 560 561
M  V30 561 1 561 562
M  V30 562 2 562 563
M  V30 563 1 563 564
M  V30 564 1 563 565
M  V30 565 2 565 566
M  V30 566 1 566 560
M  V30 567 1 559 567
M  V30 568 1 561 568
M  V30 569 1 562 569
M  V30 570 1 564 570
M  V30 571 1 565 571
M  V30 572 1 566 572
M  V30 573 1 573 574
M  V30 574 2 574 575
M  V30 575 1 575 576
M  V30 576 2 576 577
M  V30 577 1 577 578
M  V30 578 1 577 579
M  V30 579 2 579 580
M  V30 580 1 580 574
M  V30 581 1 573 581
M  V30 582 1 575 582
M  V30 583 1 576 583
M  V30 584 1 578 584
M  V30 585 1 579 585
M  V30 586 1 580 586
M  V30 587 1 587 588
M  V30 588 2 588 589
M  V30 589 1 589 590
M  V30 590 2 590 591
M  V30 591 1 591 592
M  V30 592 1 591 593
M  V30 593 2 593 594
M  V30 594 1 594 588
M  V30 595 1 587 595
M  V30 596 1 589 596
M  V30 597 1 590 597
M  V30 598 1 592 598
M  V30 599 1 593 599
M  V30 600 1 594 600
M  V30 601 2 1 181
M  V30 602 2 118 186
M  V30 603 2 5 195
M  V30 604 2 109 200
M  V30 605 2 8 209
M  V30 606 2 28 214
M  V30 607 2 10 223
M  V30 608 2 127 228
M  V30 609 2 17 237
M  V30 610 2 136 242
M  V30 611 2 14 251
M  V30 612 2 19 256
M  V30 613 2 23 265
M  V30 614 2 172 270
M  V30 615 2 26 279
M  V30 616 2 145 284
M  V30 617 2 35 293
M  V30 618 2 163 298
M  V30 619 2 32 307
M  V30 620 2 154 312
M  V30 621 2 37 321
M  V30 622 2 116 326
M  V30 623 2 41 335
M  V30 624 2 64 340
M  V30 625 2 44 349
M  V30 626 2 158 354
M  V30 627 2 46 363
M  V30 628 2 55 368
M  V30 629 2 53 377
M  V30 630 2 170 382
M  V30 631 2 50 391
M  V30 632 2 122 396
M  V30 633 2 62 405
M  V30 634 2 134 410
M  V30 635 2 59 419
M  V30 636 2 176 424
M  V30 637 2 68 433
M  V30 638 2 140 438
M  V30 639 2 71 447
M  V30 640 2 152 452
M  V30 641 2 73 461
M  V30 642 2 100 466
M  V30 643 2 80 475
M  V30 644 2 113 480
M  V30 645 2 77 489
M  V30 646 2 143 494
M  V30 647 2 82 503
M  V30 648 2 91 508
M  V30 649 2 86 517
M  V30 650 2 161 522
M  V30 651 2 89 531
M  V30 652 2 149 536
M  V30 653 2 98 545
M  V30 654 2 167 550
M  V30 655 2 95 559
M  V30 656 2 179 564
M  V30 657 2 107 573
M  V30 658 2 131 578
M  V30 659 2 104 587
M  V30 660 2 125 592
M  V30 END BOND
M  V30 END CTAB
M  END

$$$$
