
     RDKit          3D

  0  0  0  0  0  0  0  0  0  0999 V3000
M  V30 BEGIN CTAB
M  V30 COUNTS 600 660 0 0 0
M  V30 BEGIN ATOM
M  V30 1 N 21.0192 -2.4244 9.5270 0
M  V30 2 C 21.2780 -1.1811 8.8492 0
M  V30 3 N 21.0486 -0.0128 9.4498 0
M  V30 4 C 21.2769 1.1804 8.8523 0
M  V30 5 N 21.0210 2.4114 9.5221 0
M  V30 6 N 21.7567 1.1302 7.5961 0
M  V30 7 C 22.0071 -0.0158 6.9404 0
M  V30 8 N 22.5157 0.0130 5.6090 0
M  V30 9 N 21.7574 -1.1663 7.5943 0
M  V30 10 N -21.0192 -2.4244 9.5270 0
M  V30 11 C -21.2739 -1.1745 8.8600 0
M  V30 12 N -21.7497 -1.1471 7.6145 0
M  V30 13 C -22.0043 0.0035 6.9479 0
M  V30 14 N -22.5126 -0.0020 5.6171 0
M  V30 15 N -21.7488 1.1429 7.6167 0
M  V30 16 C -21.2695 1.1778 8.8717 0
M  V30 17 N -21.0241 2.4264 9.5140 0
M  V30 18 N -21.0388 -0.0037 9.4755 0
M  V30 19 N -22.5175 0.0000 -5.6042 0
M  V30 20 C -22.0039 0.0067 -6.9489 0
M  V30 21 N -21.7576 -1.1343 -7.5938 0
M  V30 22 C -21.2747 -1.1770 -8.8579 0
M  V30 23 N -21.0223 -2.4134 -9.5189 0
M  V30 24 N -21.0503 0.0128 -9.4454 0
M  V30 25 C -21.2793 1.1936 -8.8461 0
M  V30 26 N -21.0161 2.4134 -9.5351 0
M  V30 27 N -21.7597 1.1627 -7.5883 0
M  V30 28 N 22.5175 0.0000 -5.6042 0
M  V30 29 C 22.0039 -0.0067 -6.9489 0
M  V30 30 N 21.7576 1.1343 -7.5938 0
M  V30 31 C 21.2747 1.1770 -8.8579 0
M  V30 32 N 21.0223 2.4134 -9.5189 0
M  V30 33 N 21.0503 -0.0128 -9.4454 0
M  V30 34 C 21.2793 -1.1936 -8.8461 0
M  V30 35 N 21.0161 -2.4134 -9.5351 0
M  V30 36 N 21.7597 -1.1627 -7.5883 0
M  V30 37 N 9.5270 21.0192 2.4244 0
M  V30 38 C 8.8600 21.2739 1.1745 0
M  V30 39 N 7.6145 21.7497 1.1471 0
M  V30 40 C 6.9479 22.0043 -0.0035 0
M  V30 41 N 5.6171 22.5126 0.0020 0
M  V30 42 N 7.6167 21.7488 -1.1429 0
M  V30 43 C 8.8717 21.2695 -1.1778 0
M  V30 44 N 9.5140 21.0241 -2.4264 0
M  V30 45 N 9.4755 21.0388 0.0037 0
M  V30 46 N 5.6042 -22.5175 -0.0000 0
M  V30 47 C 6.9489 -22.0039 -0.0067 0
M  V30 48 N 7.5938 -21.7576 1.1343 0
M  V30 49 C 8.8579 -21.2747 1.1770 0
M  V30 50 N 9.5189 -21.0223 2.4134 0
M  V30 51 N 9.4454 -21.0503 -0.0128 0
M  V30 52 C 8.8461 -21.2793 -1.1936 0
M  V30 53 N 9.5351 -21.0161 -2.4134 0
M  V30 54 N 7.5883 -21.7597 -1.1627 0
M  V30 55 N -5.6042 -22.5175 0.0000 0
M  V30 56 C -6.9489 -22.0039 0.0067 0
M  V30 57 N -7.5938 -21.7576 -1.1343 0
M  V30 58 C -8.8579 -21.2747 -1.1770 0
M  V30 59 N -9.5189 -21.0223 -2.4134 0
M  V30 60 N -9.4454 -21.0503 0.0128 0
M  V30 61 C -8.8461 -21.2793 1.1936 0
M  V30 62 N -9.5351 -21.0161 2.4134 0
M  V30 63 N -7.5883 -21.7597 1.1627 0
M  V30 64 N -5.6042 22.5175 -0.0000 0
M  V30 65 C -6.9489 22.0039 -0.0067 0
M  V30 66 N -7.5938 21.7576 1.1343 0
M  V30 67 C -8.8579 21.2747 1.1770 0
M  V30 68 N -9.5189 21.0223 2.4134 0
M  V30 69 N -9.4454 21.0503 -0.0128 0
M  V30 70 C -8.8461 21.2793 -1.1936 0
M  V30 71 N -9.5351 21.0161 -2.4134 0
M  V30 72 N -7.5883 21.7597 -1.1627 0
M  V30 73 N 0.0000 5.6042 22.5175 0
M  V30 74 C 0.0067 6.9489 22.0039 0
M  V30 75 N -1.1343 7.5938 21.7576 0
M  V30 76 C -1.1770 8.8579 21.2747 0
M  V30 77 N -2.4134 9.5189 21.0223 0
M  V30 78 N 0.0128 9.4454 21.0503 0
M  V30 79 C 1.1936 8.8461 21.2793 0
M  V30 80 N 2.4134 9.5351 21.0161 0
M  V30 81 N 1.1627 7.5883 21.7597 0
M  V30 82 N 0.0000 5.6042 -22.5175 0
M  V30 83 C -0.0067 6.9489 -22.0039 0
M  V30 84 N 1.1343 7.5938 -21.7576 0
M  V30 85 C 1.1770 8.8579 -21.2747 0
M  V30 86 N 2.4134 9.5189 -21.0223 0
M  V30 87 N -0.0128 9.4454 -21.0503 0
M  V30 88 C -1.1936 8.8461 -21.2793 0
M  V30 89 N -2.4134 9.5351 -21.0161 0
M  V30 90 N -1.1627 7.5883 -21.7597 0
M  V30 91 N 0.0000 -5.6042 -22.5175 0
M  V30 92 C 0.0067 -6.9489 -22.0039 0
M  V30 93 N -1.1343 -7.5938 -21.7576 0
M  V30 94 C -1.1770 -8.8579 -21.2747 0
M  V30 95 N -2.4134 -9.5189 -21.0223 0
M  V30 96 N 0.0128 -9.4454 -21.0503 0
M  V30 97 C 1.1936 -8.8461 -21.2793 0
M  V30 98 N 2.4134 -9.5351 -21.0161 0
M  V30 99 N 1.1627 -7.5883 -21.7597 0
M  V30 100 N 0.0000 -5.6042 22.5175 0
M  V30 101 C -0.0067 -6.9489 22.0039 0
M  V30 102 N 1.1343 -7.5938 21.7576 0
M  V30 103 C 1.1770 -8.8579 21.2747 0
M  V30 104 N 2.4134 -9.5189 21.0223 0
M  V30 105 N -0.0128 -9.4454 21.0503 0
M  V30 106 C -1.1936 -8.8461 21.2793 0
M  V30 107 N -2.4134 -9.5351 21.0161 0
M  V30 108 N -1.1627 -7.5883 21.7597 0
M  V30 109 N 15.4150 11.4922 12.9906 0
M  V30 110 C 14.3291 12.4247 13.1439 0
M  V30 111 N 13.4548 12.2998 14.1431 0
M  V30 112 C 12.4190 13.1520 14.3268 0
M  V30 113 N 11.5022 12.9904 15.4051 0
M  V30 114 N 12.3113 14.1528 13.4336 0
M  V30 115 C 13.1611 14.3291 12.4076 0
M  V30 116 N 12.9806 15.4151 11.5020 0
M  V30 117 N 14.1690 13.4445 12.2841 0
M  V30 118 N 15.4150 -11.4922 12.9906 0
M  V30 119 C 14.3250 -12.4180 13.1547 0
M  V30 120 N 14.1559 -13.4341 12.3078 0
M  V30 121 C 13.1464 -14.3289 12.4224 0
M  V30 122 N 12.9937 -15.4039 11.5001 0
M  V30 123 N 12.3035 -14.1400 13.4543 0
M  V30 124 C 12.4234 -13.1355 14.3388 0
M  V30 125 N 11.4890 -13.0017 15.4070 0
M  V30 126 N 13.4505 -12.2819 14.1654 0
M  V30 127 N -15.4150 -11.4922 12.9906 0
M  V30 128 C -14.3291 -12.4247 13.1439 0
M  V30 129 N -13.4548 -12.2998 14.1431 0
M  V30 130 C -12.4190 -13.1520 14.3268 0
M  V30 131 N -11.5022 -12.9904 15.4051 0
M  V30 132 N -12.3113 -14.1528 13.4336 0
M  V30 133 C -13.1611 -14.3291 12.4076 0
M  V30 134 N -12.9806 -15.4151 11.5020 0
M  V30 135 N -14.1690 -13.4445 12.2841 0
M  V30 136 N -15.4150 11.4922 12.9906 0
M  V30 137 C -14.3250 12.4180 13.1547 0
M  V30 138 N -14.1559 13.4341 12.3078 0
M  V30 139 C -13.1464 14.3289 12.4224 0
M  V30 140 N -12.9937 15.4039 11.5001 0
M  V30 141 N -12.3035 14.1400 13.4543 0
M  V30 142 C -12.4234 13.1355 14.3388 0
M  V30 143 N -11.4890 13.0017 15.4070 0
M  V30 144 N -13.4505 12.2819 14.1654 0
M  V30 145 N -15.4150 11.4922 -12.9906 0
M  V30 146 C -14.3291 12.4247 -13.1439 0
M  V30 147 N -13.4548 12.2998 -14.1431 0
M  V30 148 C -12.4190 13.1520 -14.3268 0
M  V30 149 N -11.5022 12.9904 -15.4051 0
M  V30 150 N -12.3113 14.1528 -13.4336 0
M  V30 151 C -13.1611 14.3291 -12.4076 0
M  V30 152 N -12.9806 15.4151 -11.5020 0
M  V30 153 N -14.1690 13.4445 -12.2841 0
M  V30 154 N 15.4150 11.4922 -12.9906 0
M  V30 155 C 14.3250 12.4180 -13.1547 0
M  V30 156 N 14.1559 13.4341 -12.3078 0
M  V30 157 C 13.1464 14.3289 -12.4224 0
M  V30 158 N 12.9937 15.4039 -11.5001 0
M  V30 159 N 12.3035 14.1400 -13.4543 0
M  V30 160 C 12.4234 13.1355 -14.3388 0
M  V30 161 N 11.4890 13.0017 -15.4070 0
M  V30 162 N 13.4505 12.2819 -14.1654 0
M  V30 163 N 15.4150 -11.4922 -12.9906 0
M  V30 164 C 14.3291 -12.4247 -13.1439 0
M  V30 165 N 13.4548 -12.2998 -14.1431 0
M  V30 166 C 12.4190 -13.1520 -14.3268 0
M  V30 167 N 11.5022 -12.9904 -15.4051 0
M  V30 168 N 12.3113 -14.1528 -13.4336 0
M  V30 169 C 13.1611 -14.3291 -12.4076 0
M  V30 170 N 12.9806 -15.4151 -11.5020 0
M  V30 171 N 14.1690 -13.4445 -12.2841 0
M  V30 172 N -15.4150 -11.4922 -12.9906 0
M  V30 173 C -14.3250 -12.4180 -13.1547 0
M  V30 174 N -14.1559 -13.4341 -12.3078 0
M  V30 175 C -13.1464 -14.3289 -12.4224 0
M  V30 176 N -12.9937 -15.4039 -11.5001 0
M  V30 177 N -12.3035 -14.1400 -13.4543 0
M  V30 178 C -12.4234 -13.1355 -14.3388 0
M  V30 179 N -11.4890 -13.0017 -15.4070 0
M  V30 180 N -13.4505 -12.2819 -14.1654 0
M  V30 181 C 19.6560 -4.6301 10.3695 0
M  V30 182 C 18.9287 -5.8146 10.8345 0
M  V30 183 C 19.0555 -6.2901 12.1219 0
M  V30 184 F 19.8957 -5.6070 12.9598 0
M  V30 185 C 18.3620 -7.4067 12.5395 0
M  V30 186 F 18.4917 -7.8687 13.8072 0
M  V30 187 C 17.5121 -8.1048 11.7061 0
M  V30 188 C 16.7781 -9.2865 12.1481 0
M  V30 189 C 17.3836 -7.6300 10.4156 0
M  V30 190 F 16.5494 -8.2937 9.5548 0
M  V30 191 C 18.0807 -6.5081 9.9971 0
M  V30 192 F 17.9581 -6.0375 8.7305 0
M  V30 193 H 19.2743 -3.6404 10.4391 0
M  V30 194 H 17.2344 -10.2806 12.0349 0
M  V30 195 C 19.6569 4.6236 10.3670 0
M  V30 196 C 18.9350 5.8168 10.8180 0
M  V30 197 C 19.5344 7.0568 10.8683 0
M  V30 198 F 20.8442 7.1336 10.4769 0
M  V30 199 C 18.8371 8.1674 11.2959 0
M  V30 200 F 19.4331 9.3838 11.3427 0
M  V30 201 C 17.5170 8.1048 11.6932 0
M  V30 202 C 16.7791 9.2800 12.1457 0
M  V30 203 C 16.9146 6.8631 11.6435 0
M  V30 204 F 15.6041 6.7563 12.0294 0
M  V30 205 C 17.6160 5.7481 11.2138 0
M  V30 206 F 17.0288 4.5261 11.1631 0
M  V30 207 H 19.6888 4.3030 9.3541 0
M  V30 208 H 16.7843 9.5445 13.2130 0
M  V30 209 C 22.5166 0.0065 2.8803 0
M  V30 210 C 22.5268 -0.0022 1.4146 0
M  V30 211 C 23.4202 -0.7665 0.6956 0
M  V30 212 F 24.3081 -1.5261 1.4093 0
M  V30 213 C 23.4131 -0.7604 -0.6837 0
M  V30 214 F 24.2947 -1.5147 -1.3843 0
M  V30 215 C 22.5242 -0.0000 -1.4159 0
M  V30 216 C 22.5166 0.0065 -2.8754 0
M  V30 217 C 21.6281 0.7666 -0.6972 0
M  V30 218 F 20.7277 1.5369 -1.3852 0
M  V30 219 C 21.6362 0.7597 0.6883 0
M  V30 220 F 20.7580 1.5110 1.3991 0
M  V30 221 H 21.9370 -0.6627 3.4685 0
M  V30 222 H 23.1361 0.7363 -3.4166 0
M  V30 223 C -19.6560 -4.6301 10.3695 0
M  V30 224 C -18.9341 -5.8233 10.8204 0
M  V30 225 C -19.5335 -7.0633 10.8707 0
M  V30 226 F -20.8432 -7.1401 10.4792 0
M  V30 227 C -18.8361 -8.1739 11.2983 0
M  V30 228 F -19.4321 -9.3903 11.3451 0
M  V30 229 C -17.5161 -8.1113 11.6956 0
M  V30 230 C -16.7781 -9.2865 12.1481 0
M  V30 231 C -16.9136 -6.8696 11.6460 0
M  V30 232 F -15.6032 -6.7628 12.0319 0
M  V30 233 C -17.6151 -5.7546 11.2163 0
M  V30 234 F -17.0280 -4.5325 11.1656 0
M  V30 235 H -19.6878 -4.3095 9.3565 0
M  V30 236 H -16.7834 -9.5510 13.2154 0
M  V30 237 C -19.6585 4.6311 10.3630 0
M  V30 238 C -18.9312 5.8156 10.8280 0
M  V30 239 C -19.0583 6.2913 12.1153 0
M  V30 240 F -19.8987 5.6084 12.9531 0
M  V30 241 C -18.3647 7.4080 12.5330 0
M  V30 242 F -18.4946 7.8701 13.8005 0
M  V30 243 C -17.5145 8.1058 11.6997 0
M  V30 244 C -16.7806 9.2876 12.1416 0
M  V30 245 C -17.3858 7.6308 10.4093 0
M  V30 246 F -16.5514 8.2944 9.5485 0
M  V30 247 C -18.0830 6.5089 9.9907 0
M  V30 248 F -17.9601 6.0382 8.7242 0
M  V30 249 H -19.2769 3.6414 10.4328 0
M  V30 250 H -17.2367 10.2817 12.0281 0
M  V30 251 C -22.5151 -0.0010 2.8843 0
M  V30 252 C -22.5252 0.0077 1.4187 0
M  V30 253 C -23.4185 0.7722 0.6996 0
M  V30 254 F -24.3062 1.5320 1.4134 0
M  V30 255 C -23.4113 0.7661 -0.6796 0
M  V30 256 F -24.2928 1.5206 -1.3802 0
M  V30 257 C -22.5227 0.0055 -1.4118 0
M  V30 258 C -22.5151 -0.0010 -2.8714 0
M  V30 259 C -21.6267 -0.7614 -0.6931 0
M  V30 260 F -20.7265 -1.5319 -1.3812 0
M  V30 261 C -21.6348 -0.7545 0.6924 0
M  V30 262 F -20.7568 -1.5059 1.4032 0
M  V30 263 H -21.9353 0.6681 3.4726 0
M  V30 264 H -23.1347 -0.7307 -3.4125 0
M  V30 265 C -19.6575 -4.6246 -10.3654 0
M  V30 266 C -18.9303 -5.8091 -10.8304 0
M  V30 267 C -19.0571 -6.2846 -12.1178 0
M  V30 268 F -19.8974 -5.6016 -12.9557 0
M  V30 269 C -18.3636 -7.4013 -12.5355 0
M  V30 270 F -18.4933 -7.8632 -13.8031 0
M  V30 271 C -17.5136 -8.0993 -11.7021 0
M  V30 272 C -16.7797 -9.2810 -12.1440 0
M  V30 273 C -17.3851 -7.6245 -10.4116 0
M  V30 274 F -16.5509 -8.2882 -9.5507 0
M  V30 275 C -18.0822 -6.5026 -9.9931 0
M  V30 276 F -17.9596 -6.0320 -8.7265 0
M  V30 277 H -19.2759 -3.6350 -10.4351 0
M  V30 278 H -17.2359 -10.2751 -12.0308 0
M  V30 279 C -19.6544 4.6246 -10.3735 0
M  V30 280 C -18.9325 5.8178 -10.8245 0
M  V30 281 C -19.5320 7.0578 -10.8750 0
M  V30 282 F -20.8419 7.1345 -10.4839 0
M  V30 283 C -18.8347 8.1683 -11.3026 0
M  V30 284 F -19.4308 9.3847 -11.3498 0
M  V30 285 C -17.5145 8.1059 -11.6996 0
M  V30 286 C -16.7766 9.2810 -12.1521 0
M  V30 287 C -16.9120 6.8642 -11.6497 0
M  V30 288 F -15.6015 6.7574 -12.0353 0
M  V30 289 C -17.6134 5.7492 -11.2200 0
M  V30 290 F -17.0262 4.5272 -11.1691 0
M  V30 291 H -19.6865 4.3042 -9.3605 0
M  V30 292 H -16.7817 9.5454 -13.2195 0
M  V30 293 C 19.6544 -4.6246 -10.3735 0
M  V30 294 C 18.9325 -5.8178 -10.8245 0
M  V30 295 C 19.5320 -7.0578 -10.8750 0
M  V30 296 F 20.8419 -7.1345 -10.4839 0
M  V30 297 C 18.8347 -8.1683 -11.3026 0
M  V30 298 F 19.4308 -9.3847 -11.3498 0
M  V30 299 C 17.5145 -8.1059 -11.6996 0
M  V30 300 C 16.7766 -9.2810 -12.1521 0
M  V30 301 C 16.9120 -6.8642 -11.6497 0
M  V30 302 F 15.6015 -6.7574 -12.0353 0
M  V30 303 C 17.6134 -5.7492 -11.2200 0
M  V30 304 F 17.0262 -4.5272 -11.1691 0
M  V30 305 H 19.6865 -4.3042 -9.3605 0
M  V30 306 H 16.7817 -9.5454 -13.2195 0
M  V30 307 C 19.6575 4.6246 -10.3654 0
M  V30 308 C 18.9303 5.8091 -10.8304 0
M  V30 309 C 19.0571 6.2846 -12.1178 0
M  V30 310 F 19.8974 5.6016 -12.9557 0
M  V30 311 C 18.3636 7.4013 -12.5355 0
M  V30 312 F 18.4933 7.8632 -13.8031 0
M  V30 313 C 17.5136 8.0993 -11.7021 0
M  V30 314 C 16.7797 9.2810 -12.1440 0
M  V30 315 C 17.3851 7.6245 -10.4116 0
M  V30 316 F 16.5509 8.2882 -9.5507 0
M  V30 317 C 18.0822 6.5026 -9.9931 0
M  V30 318 F 17.9596 6.0320 -8.7265 0
M  V30 319 H 19.2759 3.6350 -10.4351 0
M  V30 320 H 17.2359 10.2751 -12.0308 0
M  V30 321 C 10.3645 19.6561 4.6350 0
M  V30 322 C 10.8154 18.9341 5.8282 0
M  V30 323 C 10.8654 19.5334 7.0683 0
M  V30 324 F 10.4736 20.8431 7.1451 0
M  V30 325 C 11.2930 18.8361 8.1789 0
M  V30 326 F 11.3395 19.4320 9.3954 0
M  V30 327 C 11.6906 17.5161 8.1163 0
M  V30 328 C 12.1431 16.7782 9.2915 0
M  V30 329 C 11.6413 16.9138 6.8744 0
M  V30 330 F 12.0276 15.6035 6.7676 0
M  V30 331 C 11.2116 17.6152 5.7595 0
M  V30 332 F 11.1613 17.0282 4.5373 0
M  V30 333 H 9.3516 19.6877 4.3143 0
M  V30 334 H 13.2104 16.7837 9.5561 0
M  V30 335 C 2.8843 22.5151 0.0010 0
M  V30 336 C 1.4187 22.5252 -0.0077 0
M  V30 337 C 0.6996 23.4185 -0.7722 0
M  V30 338 F 1.4134 24.3062 -1.5320 0
M  V30 339 C -0.6796 23.4113 -0.7661 0
M  V30 340 F -1.3802 24.2928 -1.5206 0
M  V30 341 C -1.4118 22.5227 -0.0055 0
M  V30 342 C -2.8714 22.5151 0.0010 0
M  V30 343 C -0.6931 21.6267 0.7614 0
M  V30 344 F -1.3812 20.7265 1.5319 0
M  V30 345 C 0.6924 21.6348 0.7545 0
M  V30 346 F 1.4032 20.7568 1.5059 0
M  V30 347 H 3.4726 21.9353 -0.6681 0
M  V30 348 H -3.4125 23.1347 0.7307 0
M  V30 349 C 10.3646 19.6529 -4.6350 0
M  V30 350 C 10.8296 18.9256 -5.8196 0
M  V30 351 C 12.1169 19.0527 -6.2952 0
M  V30 352 F 12.9548 19.8931 -5.6123 0
M  V30 353 C 12.5346 18.3592 -7.4119 0
M  V30 354 F 13.8021 18.4890 -7.8740 0
M  V30 355 C 11.7012 17.5090 -8.1098 0
M  V30 356 C 12.1432 16.7751 -9.2915 0
M  V30 357 C 10.4108 17.3803 -7.6348 0
M  V30 358 F 9.5500 16.5459 -8.2984 0
M  V30 359 C 9.9923 18.0774 -6.5129 0
M  V30 360 F 8.7258 17.9546 -6.0422 0
M  V30 361 H 10.4344 19.2713 -3.6454 0
M  V30 362 H 12.0298 17.2312 -10.2856 0
M  V30 363 C 2.8779 -22.5175 0.0000 0
M  V30 364 C 1.4122 -22.5277 0.0087 0
M  V30 365 C 0.6931 -23.4209 0.7733 0
M  V30 366 F 1.4069 -24.3086 1.5331 0
M  V30 367 C -0.6861 -23.4138 0.7671 0
M  V30 368 F -1.3867 -24.2952 1.5217 0
M  V30 369 C -1.4183 -22.5252 0.0065 0
M  V30 370 C -2.8779 -22.5175 0.0000 0
M  V30 371 C -0.6996 -21.6292 -0.7604 0
M  V30 372 F -1.3877 -20.7290 -1.5310 0
M  V30 373 C 0.6859 -21.6373 -0.7535 0
M  V30 374 F 1.3967 -20.7594 -1.5050 0
M  V30 375 H 3.4661 -21.9378 0.6691 0
M  V30 376 H -3.4190 -23.1372 -0.7296 0
M  V30 377 C 10.3685 -19.6545 -4.6295 0
M  V30 378 C 10.8195 -18.9326 -5.8227 0
M  V30 379 C 10.8697 -19.5320 -7.0628 0
M  V30 380 F 10.4783 -20.8418 -7.1395 0
M  V30 381 C 11.2973 -18.8346 -8.1733 0
M  V30 382 F 11.3441 -19.4306 -9.3898 0
M  V30 383 C 11.6947 -17.5146 -8.1108 0
M  V30 384 C 12.1472 -16.7766 -9.2860 0
M  V30 385 C 11.6451 -16.9122 -6.8690 0
M  V30 386 F 12.0310 -15.6017 -6.7622 0
M  V30 387 C 11.2154 -17.6136 -5.7541 0
M  V30 388 F 11.1647 -17.0265 -4.5320 0
M  V30 389 H 9.3556 -19.6864 -4.3089 0
M  V30 390 H 13.2145 -16.7819 -9.5504 0
M  V30 391 C 10.3670 -19.6520 4.6285 0
M  V30 392 C 10.8320 -18.9247 5.8131 0
M  V30 393 C 12.1194 -19.0515 6.2885 0
M  V30 394 F 12.9573 -19.8918 5.6055 0
M  V30 395 C 12.5371 -18.3580 7.4052 0
M  V30 396 F 13.8047 -18.4877 7.8671 0
M  V30 397 C 11.7037 -17.5081 8.1033 0
M  V30 398 C 12.1456 -16.7741 9.2850 0
M  V30 399 C 10.4132 -17.3796 7.6285 0
M  V30 400 F 9.5523 -16.5454 8.2922 0
M  V30 401 C 9.9946 -18.0767 6.5066 0
M  V30 402 F 8.7280 -17.9541 6.0360 0
M  V30 403 H 10.4366 -19.2703 3.6389 0
M  V30 404 H 12.0324 -17.2304 10.2791 0
M  V30 405 C -10.3685 -19.6545 4.6295 0
M  V30 406 C -10.8195 -18.9326 5.8227 0
M  V30 407 C -10.8697 -19.5320 7.0628 0
M  V30 408 F -10.4783 -20.8418 7.1395 0
M  V30 409 C -11.2973 -18.8346 8.1733 0
M  V30 410 F -11.3441 -19.4306 9.3898 0
M  V30 411 C -11.6947 -17.5146 8.1108 0
M  V30 412 C -12.1472 -16.7766 9.2860 0
M  V30 413 C -11.6451 -16.9122 6.8690 0
M  V30 414 F -12.0310 -15.6017 6.7622 0
M  V30 415 C -11.2154 -17.6136 5.7541 0
M  V30 416 F -11.1647 -17.0265 4.5320 0
M  V30 417 H -9.3556 -19.6864 4.3089 0
M  V30 418 H -13.2145 -16.7819 9.5504 0
M  V30 419 C -10.3670 -19.6520 -4.6285 0
M  V30 420 C -10.8320 -18.9247 -5.8131 0
M  V30 421 C -12.1194 -19.0515 -6.2885 0
M  V30 422 F -12.9573 -19.8918 -5.6055 0
M  V30 423 C -12.5371 -18.3580 -7.4052 0
M  V30 424 F -13.8047 -18.4877 -7.8671 0
M  V30 425 C -11.7037 -17.5081 -8.1033 0
M  V30 426 C -12.1456 -16.7741 -9.2850 0
M  V30 427 C -10.4132 -17.3796 -7.6285 0
M  V30 428 F -9.5523 -16.5454 -8.2922 0
M  V30 429 C -9.9946 -18.0767 -6.5066 0
M  V30 430 F -8.7280 -17.9541 -6.0360 0
M  V30 431 H -10.4366 -19.2703 -3.6389 0
M  V30 432 H -12.0324 -17.2304 -10.2791 0
M  V30 433 C -10.3670 19.6520 4.6285 0
M  V30 434 C -10.8320 18.9247 5.8131 0
M  V30 435 C -12.1194 19.0515 6.2885 0
M  V30 436 F -12.9573 19.8918 5.6055 0
M  V30 437 C -12.5371 18.3580 7.4052 0
M  V30 438 F -13.8047 18.4877 7.8671 0
M  V30 439 C -11.7037 17.5081 8.1033 0
M  V30 440 C -12.1456 16.7741 9.2850 0
M  V30 441 C -10.4132 17.3796 7.6285 0
M  V30 442 F -9.5523 16.5454 8.2922 0
M  V30 443 C -9.9946 18.0767 6.5066 0
M  V30 444 F -8.7280 17.9541 6.0360 0
M  V30 445 H -10.4366 19.2703 3.6389 0
M  V30 446 H -12.0324 17.2304 10.2791 0
M  V30 447 C -10.3685 19.6545 -4.6295 0
M  V30 448 C -10.8195 18.9326 -5.8227 0
M  V30 449 C -10.8697 19.5320 -7.0628 0
M  V30 450 F -10.4783 20.8418 -7.1395 0
M  V30 451 C -11.2973 18.8346 -8.1733 0
M  V30 452 F -11.3441 19.4306 -9.3898 0
M  V30 453 C -11.6947 17.5146 -8.1108 0
M  V30 454 C -12.1472 16.7766 -9.2860 0
M  V30 455 C -11.6451 16.9122 -6.8690 0
M  V30 456 F -12.0310 15.6017 -6.7622 0
M  V30 457 C -11.2154 17.6136 -5.7541 0
M  V30 458 F -11.1647 17.0265 -4.5320 0
M  V30 459 H -9.3556 19.6864 -4.3089 0
M  V30 460 H -13.2145 16.7819 -9.5504 0
M  V30 461 C 0.0000 2.8779 22.5175 0
M  V30 462 C -0.0087 1.4122 22.5277 0
M  V30 463 C -0.7733 0.6931 23.4209 0
M  V30 464 F -1.5331 1.4069 24.3086 0
M  V30 465 C -0.7671 -0.6861 23.4138 0
M  V30 466 F -1.5217 -1.3867 24.2952 0
M  V30 467 C -0.0065 -1.4183 22.5252 0
M  V30 468 C 0.0000 -2.8779 22.5175 0
M  V30 469 C 0.7604 -0.6996 21.6292 0
M  V30 470 F 1.5310 -1.3877 20.7290 0
M  V30 471 C 0.7535 0.6859 21.6373 0
M  V30 472 F 1.5050 1.3967 20.7594 0
M  V30 473 H -0.6691 3.4661 21.9378 0
M  V30 474 H 0.7296 -3.4190 23.1372 0
M  V30 475 C 4.6296 10.3735 19.6495 0
M  V30 476 C 5.8227 10.8244 18.9276 0
M  V30 477 C 7.0628 10.8749 19.5271 0
M  V30 478 F 7.1395 10.4838 20.8369 0
M  V30 479 C 8.1733 11.3025 18.8297 0
M  V30 480 F 9.3897 11.3496 19.4258 0
M  V30 481 C 8.1108 11.6996 17.5096 0
M  V30 482 C 9.2860 12.1521 16.7717 0
M  V30 483 C 6.8691 11.6497 16.9071 0
M  V30 484 F 6.7624 12.0354 15.5966 0
M  V30 485 C 5.7542 11.2200 17.6085 0
M  V30 486 F 4.5321 11.1691 17.0213 0
M  V30 487 H 4.3091 9.3605 19.6816 0
M  V30 488 H 9.5504 13.2194 16.7768 0
M  V30 489 C -4.6230 10.3710 19.6536 0
M  V30 490 C -5.8075 10.8359 18.9263 0
M  V30 491 C -6.2828 12.1234 19.0529 0
M  V30 492 F -5.5996 12.9615 19.8929 0
M  V30 493 C -7.3995 12.5411 18.3594 0
M  V30 494 F -7.8613 13.8088 18.4888 0
M  V30 495 C -8.0978 11.7076 17.5097 0
M  V30 496 C -9.2795 12.1496 16.7757 0
M  V30 497 C -7.6231 10.4170 17.3814 0
M  V30 498 F -8.2870 9.5561 16.5474 0
M  V30 499 C -6.5012 9.9985 18.0785 0
M  V30 500 F -6.0308 8.7318 17.9561 0
M  V30 501 H -3.6334 10.4404 19.2718 0
M  V30 502 H -10.2735 12.0366 17.2320 0
M  V30 503 C 0.0000 2.8779 -22.5175 0
M  V30 504 C 0.0087 1.4122 -22.5277 0
M  V30 505 C 0.7733 0.6931 -23.4209 0
M  V30 506 F 1.5331 1.4069 -24.3086 0
M  V30 507 C 0.7671 -0.6861 -23.4138 0
M  V30 508 F 1.5217 -1.3867 -24.2952 0
M  V30 509 C 0.0065 -1.4183 -22.5252 0
M  V30 510 C 0.0000 -2.8779 -22.5175 0
M  V30 511 C -0.7604 -0.6996 -21.6292 0
M  V30 512 F -1.5310 -1.3877 -20.7290 0
M  V30 513 C -0.7535 0.6859 -21.6373 0
M  V30 514 F -1.5050 1.3967 -20.7594 0
M  V30 515 H 0.6691 3.4661 -21.9378 0
M  V30 516 H -0.7296 -3.4190 -23.1372 0
M  V30 517 C 4.6230 10.3710 -19.6536 0
M  V30 518 C 5.8075 10.8359 -18.9263 0
M  V30 519 C 6.2828 12.1234 -19.0529 0
M  V30 520 F 5.5996 12.9615 -19.8929 0
M  V30 521 C 7.3995 12.5411 -18.3594 0
M  V30 522 F 7.8613 13.8088 -18.4888 0
M  V30 523 C 8.0978 11.7076 -17.5097 0
M  V30 524 C 9.2795 12.1496 -16.7757 0
M  V30 525 C 7.6231 10.4170 -17.3814 0
M  V30 526 F 8.2870 9.5561 -16.5474 0
M  V30 527 C 6.5012 9.9985 -18.0785 0
M  V30 528 F 6.0308 8.7318 -17.9561 0
M  V30 529 H 3.6334 10.4404 -19.2718 0
M  V30 530 H 10.2735 12.0366 -17.2320 0
M  V30 531 C -4.6296 10.3735 -19.6495 0
M  V30 532 C -5.8227 10.8244 -18.9276 0
M  V30 533 C -7.0628 10.8749 -19.5271 0
M  V30 534 F -7.1395 10.4838 -20.8369 0
M  V30 535 C -8.1733 11.3025 -18.8297 0
M  V30 536 F -9.3897 11.3496 -19.4258 0
M  V30 537 C -8.1108 11.6996 -17.5096 0
M  V30 538 C -9.2860 12.1521 -16.7717 0
M  V30 539 C -6.8691 11.6497 -16.9071 0
M  V30 540 F -6.7624 12.0354 -15.5966 0
M  V30 541 C -5.7542 11.2200 -17.6085 0
M  V30 542 F -4.5321 11.1691 -17.0213 0
M  V30 543 H -4.3091 9.3605 -19.6816 0
M  V30 544 H -9.5504 13.2194 -16.7768 0
M  V30 545 C 4.6296 -10.3735 -19.6495 0
M  V30 546 C 5.8227 -10.8244 -18.9276 0
M  V30 547 C 7.0628 -10.8749 -19.5271 0
M  V30 548 F 7.1395 -10.4838 -20.8369 0
M  V30 549 C 8.1733 -11.3025 -18.8297 0
M  V30 550 F 9.3897 -11.3496 -19.4258 0
M  V30 551 C 8.1108 -11.6996 -17.5096 0
M  V30 552 C 9.2860 -12.1521 -16.7717 0
M  V30 553 C 6.8691 -11.6497 -16.9071 0
M  V30 554 F 6.7624 -12.0354 -15.5966 0
M  V30 555 C 5.7542 -11.2200 -17.6085 0
M  V30 556 F 4.5321 -11.1691 -17.0213 0
M  V30 557 H 4.3091 -9.3605 -19.6816 0
M  V30 558 H 9.5504 -13.2194 -16.7768 0
M  V30 559 C -4.6230 -10.3710 -19.6536 0
M  V30 560 C -5.8075 -10.8359 -18.9263 0
M  V30 561 C -6.2828 -12.1234 -19.0529 0
M  V30 562 F -5.5996 -12.9615 -19.8929 0
M  V30 563 C -7.3995 -12.5411 -18.3594 0
M  V30 564 F -7.8613 -13.8088 -18.4888 0
M  V30 565 C -8.0978 -11.7076 -17.5097 0
M  V30 566 C -9.2795 -12.1496 -16.7757 0
M  V30 567 C -7.6231 -10.4170 -17.3814 0
M  V30 568 F -8.2870 -9.5561 -16.5474 0
M  V30 569 C -6.5012 -9.9985 -18.0785 0
M  V30 570 F -6.0308 -8.7318 -17.9561 0
M  V30 571 H -3.6334 -10.4404 -19.2718 0
M  V30 572 H -10.2735 -12.0366 -17.2320 0
M  V30 573 C -4.6296 -10.3735 19.6495 0
M  V30 574 C -5.8227 -10.8244 18.9276 0
M  V30 575 C -7.0628 -10.8749 19.5271 0
M  V30 576 F -7.1395 -10.4838 20.8369 0
M  V30 577 C -8.1733 -11.3025 18.8297 0
M  V30 578 F -9.3897 -11.3496 19.4258 0
M  V30 579 C -8.1108 -11.6996 17.5096 0
M  V30 580 C -9.2860 -12.1521 16.7717 0
M  V30 581 C -6.8691 -11.6497 16.9071 0
M  V30 582 F -6.7624 -12.0354 15.5966 0
M  V30 583 C -5.7542 -11.2200 17.6085 0
M  V30 584 F -4.5321 -11.1691 17.0213 0
M  V30 585 H -4.3091 -9.3605 19.6816 0
M  V30 586 H -9.5504 -13.2194 16.7768 0
M  V30 587 C 4.6230 -10.3710 19.6536 0
M  V30 588 C 5.8075 -10.8359 18.9263 0
M  V30 589 C 6.2828 -12.1234 19.0529 0
M  V30 590 F 5.5996 -12.9615 19.8929 0
M  V30 591 C 7.3995 -12.5411 18.3594 0
M  V30 592 F 7.8613 -13.8088 18.4888 0
M  V30 593 C 8.0978 -11.7076 17.5097 0
M  V30 594 C 9.2795 -12.1496 16.7757 0
M  V30 595 C 7.6231 -10.4170 17.3814 0
M  V30 596 F 8.2870 -9.5561 16.5474 0
M  V30 597 C 6.5012 -9.9985 18.0785 0
M  V30 598 F 6.0308 -8.7318 17.9561 0
M  V30 599 H 3.6334 -10.4404 19.2718 0
M  V30 600 H 10.2735 -12.0366 17.2320 0
M  V30 END ATOM
M  V30 BEGIN BOND
M  V30 1 1 1 2
M  V30 2 2 2 3
M  V30 3 1 3 4
M  V30 4 1 4 5
M  V30 5 2 4 6
M  V30 6 1 6 7
M  V30 7 1 7 8
M  V30 8 2 7 9
M  V30 9 1 9 2
M  V30 10 1 10 11
M  V30 11 2 11 12
M  V30 12 1 12 13
M  V30 13 1 13 14
M  V30 14 2 13 15
M  V30 15 1 15 16
M  V30 16 1 16 17
M  V30 17 2 16 18
M  V30 18 1 18 11
M  V30 19 1 19 20
M  V30 20 2 20 21
M  V30 21 1 21 22
M  V30 22 1 22 23
M  V30 23 2 22 24
M  V30 24 1 24 25
M  V30 25 1 25 26
M  V30 26 2 25 27
M  V30 27 1 27 20
M  V30 28 1 28 29
M  V30 29 2 29 30
M  V30 30 1 30 31
M  V30 31 1 31 32
M  V30 32 2 31 33
M  V30 33 1 33 34
M  V30 34 1 34 35
M  V30 35 2 34 36
M  V30 36 1 36 29
M  V30 37 1 37 38
M  V30 38 2 38 39
M  V30 39 1 39 40
M  V30 40 1 40 41
M  V30 41 2 40 42
M  V30 42 1 42 43
M  V30 43 1 43 44
M  V30 44 2 43 45
M  V30 45 1 45 38
M  V30 46 1 46 47
M  V30 47 2 47 48
M  V30 48 1 48 49
M  V30 49 1 49 50
M  V30 50 2 49 51
M  V30 51 1 51 52
M  V30 52 1 52 53
M  V30 53 2 52 54
M  V30 54 1 54 47
M  V30 55 1 55 56
M  V30 56 2 56 57
M  V30 57 1 57 58
M  V30 58 1 58 59
M  V30 59 2 58 60
M  V30 60 1 60 61
M  V30 61 1 61 62
M  V30 62 2 61 63
M  V30 63 1 63 56
M  V30 64 1 64 65
M  V30 65 2 65 66
M  V30 66 1 66 67
M  V30 67 1 67 68
M  V30 68 2 67 69
M  V30 69 1 69 70
M  V30 70 1 70 71
M  V30 71 2 70 72
M  V30 72 1 72 65
M  V30 73 1 73 74
M  V30 74 2 74 75
M  V30 75 1 75 76
M  V30 76 1 76 77
M  V30 77 2 76 78
M  V30 78 1 78 79
M  V30 79 1 79 80
M  V30 80 2 79 81
M  V30 81 1 81 74
M  V30 82 1 82 83
M  V30 83 2 83 84
M  V30 84 1 84 85
M  V30 85 1 85 86
M  V30 86 2 85 87
M  V30 87 1 87 88
M  V30 88 1 88 89
M  V30 89 2 88 90
M  V30 90 1 90 83
M  V30 91 1 91 92
M  V30 92 2 92 93
M  V30 93 1 93 94
M  V30 94 1 94 95
M  V30 95 2 94 96
M  V30 96 1 96 97
M  V30 97 1 97 98
M  V30 98 2 97 99
M  V30 99 1 99 92
M  V30 100 1 100 101
M  V30 101 2 101 102
M  V30 102 1 102 103
M  V30 103 1 103 104
M  V30 104 2 103 105
M  V30 105 1 105 106
M  V30 106 1 106 107
M  V30 107 2 106 108
M  V30 108 1 108 101
M  V30 109 1 109 110
M  V30 110 2 110 111
M  V30 111 1 111 112
M  V30 112 1 112 113
M  V30 113 2 112 114
M  V30 114 1 114 115
M  V30 115 1 115 116
M  V30 116 2 115 117
M  V30 117 1 117 110
M  V30 118 1 118 119
M  V30 119 2 119 120
M  V30 120 1 120 121
M  V30 121 1 121 122
M  V30 122 2 121 123
M  V30 123 1 123 124
M  V30 124 1 124 125
M  V30 125 2 124 126
M  V30 126 1 126 119
M  V30 127 1 127 128
M  V30 128 2 128 129
M  V30 129 1 129 130
M  V30 130 1 130 131
M  V30 131 2 130 132
M  V30 132 1 132 133
M  V30 133 1 133 134
M  V30 134 2 133 135
M  V30 135 1 135 128
M  V30 136 1 136 137
M  V30 137 2 137 138
M  V30 138 1 138 139
M  V30 139 1 139 140
M  V30 140 2 139 141
M  V30 141 1 141 142
M  V30 142 1 142 143
M  V30 143 2 142 144
M  V30 144 1 144 137
M  V30 145 1 145 146
M  V30 146 2 146 147
M  V30 147 1 147 148
M  V30 148 1 148 149
M  V30 149 2 148 150
M  V30 150 1 150 151
M  V30 151 1 151 152
M  V30 152 2 151 153
M  V30 153 1 153 146
M  V30 154 1 154 155
M  V30 155 2 155 156
M  V30 156 1 156 157
M  V30 157 1 157 158
M  V30 158 2 157 159
M  V30 159 1 159 160
M  V30 160 1 160 161
M  V30 161 2 160 162
M  V30 162 1 162 155
M  V30 163 1 163 164
M  V30 164 2 164 165
M  V30 165 1 165 166
M  V30 166 1 166 167
M  V30 167 2 166 168
M  V30 168 1 168 169
M  V30 169 1 169 170
M  V30 170 2 169 171
M  V30 171 1 171 164
M  V30 172 1 172 173
M  V30 173 2 173 174
M  V30 174 1 174 175
M  V30 175 1 175 176
M  V30 176 2 175 177
M  V30 177 1 177 178
M  V30 178 1 178 179
M  V30 179 2 178 180
M  V30 180 1 180 173
M  V30 181 1 181 182
M  V30 182 2 182 183
M  V30 183 1 183 184
M  V30 184 1 183 185
M  V30 185 1 185 186
M  V30 186 2 185 187
M  V30 187 1 187 188
M  V30 188 1 187 189
M  V30 189 1 189 190
M  V30 190 2 189 191
M  V30 191 1 191 192
M  V30 192 1 191 182
M  V30 193 1 181 193
M  V30 194 1 188 194
M  V30 195 1 195 196
M  V30 196 2 196 197
M  V30 197 1 197 198
M  V30 198 1 197 199
M  V30 199 1 199 200
M  V30 200 2 199 201
M  V30 201 1 201 202
M  V30 202 1 201 203
M  V30 203 1 203 204
M  V30 204 2 203 205
M  V30 205 1 205 206
M  V30 206 1 205 196
M  V30 207 1 195 207
M  V30 208 1 202 208
M  V30 209 1 209 210
M  V30 210 2 210 211
M  V30 211 1 211 212
M  V30 212 1 211 213
M  V30 213 1 213 214
M  V30 214 2 213 215
M  V30 215 1 215 216
M  V30 216 1 215 217
M  V30 217 1 217 218
M  V30 218 2 217 219
M  V30 219 1 219 220
M  V30 220 1 219 210
M  V30 221 1 209 221
M  V30 222 1 216 222
M  V30 223 1 223 224
M  V30 224 2 224 225
M  V30 225 1 225 226
M  V30 226 1 225 227
M  V30 227 1 227 228
M  V30 228 2 227 229
M  V30 229 1 229 230
M  V30 230 1 229 231
M  V30 231 1 231 232
M  V30 232 2 231 233
M  V30 233 1 233 234
M  V30 234 1 233 224
M  V30 235 1 223 235
M  V30 236 1 230 236
M  V30 237 1 237 238
M  V30 238 2 238 239
M  V30 239 1 239 240
M  V30 240 1 239 241
M  V30 241 1 241 242
M  V30 242 2 241 243
M  V30 243 1 243 244
M  V30 244 1 243 245
M  V30 245 1 245 246
M  V30 246 2 245 247
M  V30 247 1 247 248
M  V30 248 1 247 238
M  V30 249 1 237 249
M  V30 250 1 244 250
M  V30 251 1 251 252
M  V30 252 2 252 253
M  V30 253 1 253 254
M  V30 254 1 253 255
M  V30 255 1 255 256
M  V30 256 2 255 257
M  V30 257 1 257 258
M  V30 258 1 257 259
M  V30 259 1 259 260
M  V30 260 2 259 261
M  V30 261 1 261 262
M  V30 262 1 261 252
M  V30 263 1 251 263
M  V30 264 1 258 264
M  V30 265 1 265 266
M  V30 266 2 266 267
M  V30 267 1 267 268
M  V30 268 1 267 269
M  V30 269 1 269 270
M  V30 270 2 269 271
M  V30 271 1 271 272
M  V30 272 1 271 273
M  V30 273 1 273 274
M  V30 274 2 273 275
M  V30 275 1 275 276
M  V30 276 1 275 266
M  V30 277 1 265 277
M  V30 278 1 272 278
M  V30 279 1 279 280
M  V30 280 2 280 281
M  V30 281 1 281 282
M  V30 282 1 281 283
M  V30 283 1 283 284
M  V30 284 2 283 285
M  V30 285 1 285 286
M  V30 286 1 285 287
M  V30 287 1 287 288
M  V30 288 2 287 289
M  V30 289 1 289 290
M  V30 290 1 289 280
M  V30 291 1 279 291
M  V30 292 1 286 292
M  V30 293 1 293 294
M  V30 294 2 294 295
M  V30 295 1 295 296
M  V30 296 1 295 297
M  V30 297 1 297 298
M  V30 298 2 297 299
M  V30 299 1 299 300
M  V30 300 1 299 301
M  V30 301 1 301 302
M  V30 302 2 301 303
M  V30 303 1 303 304
M  V30 304 1 303 294
M  V30 305 1 293 305
M  V30 306 1 300 306
M  V30 307 1 307 308
M  V30 308 2 308 309
M  V30 309 1 309 310
M  V30 310 1 309 311
M  V30 311 1 311 312
M  V30 312 2 311 313
M  V30 313 1 313 314
M  V30 314 1 313 315
M  V30 315 1 315 316
M  V30 316 2 315 317
M  V30 317 1 317 318
M  V30 318 1 317 308
M  V30 319 1 307 319
M  V30 320 1 314 320
M  V30 321 1 321 322
M  V30 322 2 322 323
M  V30 323 1 323 324
M  V30 324 1 323 325
M  V30 325 1 325 326
M  V30 326 2 325 327
M  V30 327 1 327 328
M  V30 328 1 327 329
M  V30 329 1 329 330
M  V30 330 2 329 331
M  V30 331 1 331 332
M  V30 332 1 331 322
M  V30 333 1 321 333
M  V30 334 1 328 334
M  V30 335 1 335 336
M  V30 336 2 336 337
M  V30 337 1 337 338
M  V30 338 1 337 339
M  V30 339 1 339 340
M  V30 340 2 339 341
M  V30 341 1 341 342
M  V30 342 1 341 343
M  V30 343 1 343 344
M  V30 344 2 343 345
M  V30 345 1 345 346
M  V30 346 1 345 336
M  V30 347 1 335 347
M  V30 348 1 342 348
M  V30 349 1 349 350
M  V30 350 2 350 351
M  V30 351 1 351 352
M  V30 352 1 351 353
M  V30 353 1 353 354
M  V30 354 2 353 355
M  V30 355 1 355 356
M  V30 356 1 355 357
M  V30 357 1 357 358
M  V30 358 2 357 359
M  V30 359 1 359 360
M  V30 360 1 359 350
M  V30 361 1 349 361
M  V30 362 1 356 362
M  V30 363 1 363 364
M  V30 364 2 364 365
M  V30 365 1 365 366
M  V30 366 1 365 367
M  V30 367 1 367 368
M  V30 368 2 367 369
M  V30 369 1 369 370
M  V30 370 1 369 371
M  V30 371 1 371 372
M  V30 372 2 371 373
M  V30 373 1 373 374
M  V30 374 1 373 364
M  V30 375 1 363 375
M  V30 376 1 370 376
M  V30 377 1 377 378
M  V30 378 2 378 379
M  V30 379 1 379 380
M  V30 380 1 379 381
M  V30 381 1 381 382
M  V30 382 2 381 383
M  V30 383 1 383 384
M  V30 384 1 383 385
M  V30 385 1 385 386
M  V30 386 2 385 387
M  V30 387 1 387 388
M  V30 388 1 387 378
M  V30 389 1 377 389
M  V30 390 1 384 390
M  V30 391 1 391 392
M  V30 392 2 392 393
M  V30 393 1 393 394
M  V30 394 1 393 395
M  V30 395 1 395 396
M  V30 396 2 395 397
M  V30 397 1 397 398
M  V30 398 1 397 399
M  V30 399 1 399 400
M  V30 400 2 399 401
M  V30 401 1 401 402
M  V30 402 1 401 392
M  V30 403 1 391 403
M  V30 404 1 398 404
M  V30 405 1 405 406
M  V30 406 2 406 407
M  V30 407 1 407 408
M  V30 408 1 407 409
M  V30 409 1 409 410
M  V30 410 2 409 411
M  V30 411 1 411 412
M  V30 412 1 411 413
M  V30 413 1 413 414
M  V30 414 2 413 415
M  V30 415 1 415 416
M  V30 416 1 415 406
M  V30 417 1 405 417
M  V30 418 1 412 418
M  V30 419 1 419 420
M  V30 420 2 420 421
M  V30 421 1 421 422
M  V30 422 1 421 423
M  V30 423 1 423 424
M  V30 424 2 423 425
M  V30 425 1 425 426
M  V30 426 1 425 427
M  V30 427 1 427 428
M  V30 428 2 427 429
M  V30 429 1 429 430
M  V30 430 1 429 420
M  V30 431 1 419 431
M  V30 432 1 426 432
M  V30 433 1 433 434
M  V30 434 2 434 435
M  V30 435 1 435 436
M  V30 436 1 435 437
M  V30 437 1 437 438
M  V30 438 2 437 439
M  V30 439 1 439 440
M  V30 440 1 439 441
M  V30 441 1 441 442
M  V30 442 2 441 443
M  V30 443 1 443 444
M  V30 444 1 443 434
M  V30 445 1 433 445
M  V30 446 1 440 446
M  V30 447 1 447 448
M  V30 448 2 448 449
M  V30 449 1 449 450
M  V30 450 1 449 451
M  V30 451 1 451 452
M  V30 452 2 451 453
M  V30 453 1 453 454
M  V30 454 1 453 455
M  V30 455 1 455 456
M  V30 456 2 455 457
M  V30 457 1 457 458
M  V30 458 1 457 448
M  V30 459 1 447 459
M  V30 460 1 454 460
M  V30 461 1 461 462
M  V30 462 2 462 463
M  V30 463 1 463 464
M  V30 464 1 463 465
M  V30 465 1 465 466
M  V30 466 2 465 467
M  V30 467 1 467 468
M  V30 468 1 467 469
M  V30 469 1 469 470
M  V30 470 2 469 471
M  V30 471 1 471 472
M  V30 472 1 471 462
M  V30 473 1 461 473
M  V30 474 1 468 474
M  V30 475 1 475 476
M  V30 476 2 476 477
M  V30 477 1 477 478
M  V30 478 1 477 479
M  V30 479 1 479 480
M  V30 480 2 479 481
M  V30 481 1 481 482
M  V30 482 1 481 483
M  V30 483 1 483 484
M  V30 484 2 483 485
M  V30 485 1 485 486
M  V30 486 1 485 476
M  V30 487 1 475 487
M  V30 488 1 482 488
M  V30 489 1 489 490
M  V30 490 2 490 491
M  V30 491 1 491 492
M  V30 492 1 491 493
M  V30 493 1 493 494
M  V30 494 2 493 495
M  V30 495 1 495 496
M  V30 496 1 495 497
M  V30 497 1 497 498
M  V30 498 2 497 499
M  V30 499 1 499 500
M  V30 500 1 499 490
M  V30 501 1 489 501
M  V30 502 1 496 502
M  V30 503 1 503 504
M  V30 504 2 504 505
M  V30 505 1 505 506
M  V30 506 1 505 507
M  V30 507 1 507 508
M  V30 508 2 507 509
M  V30 509 1 509 510
M  V30 510 1 509 511
M  V30 511 1 511 512
M  V30 512 2 511 513
M  V30 513 1 513 514
M  V30 514 1 513 504
M  V30 515 1 503 515
M  V30 516 1 510 516
M  V30 517 1 517 518
M  V30 518 2 518 519
M  V30 519 1 519 520
M  V30 520 1 519 521
M  V30 521 1 521 522
M  V30 522 2 521 523
M  V30 523 1 523 524
M  V30 524 1 523 525
M  V30 525 1 525 526
M  V30 526 2 525 527
M  V30 527 1 527 528
M  V30 528 1 527 518
M  V30 529 1 517 529
M  V30 530 1 524 530
M  V30 531 1 531 532
M  V30 532 2 532 533
M  V30 533 1 533 534
M  V30 534 1 533 535
M  V30 535 1 535 536
M  V30 536 2 535 537
M  V30 537 1 537 538
M  V30 538 1 537 539
M  V30 539 1 539 540
M  V30 540 2 539 541
M  V30 541 1 541 542
M  V30 542 1 541 532
M  V30 543 1 531 543
M  V30 544 1 538 544
M  V30 545 1 545 546
M  V30 546 2 546 547
M  V30 547 1 547 548
M  V30 548 1 547 549
M  V30 549 1 549 550
M  V30 550 2 549 551
M  V30 551 1 551 552
M  V30 552 1 551 553
M  V30 553 1 553 554
M  V30 554 2 553 555
M  V30 555 1 555 556
M  V30 556 1 555 546
M  V30 557 1 545 557
M  V30 558 1 552 558
M  V30 559 1 559 560
M  V30 560 2 560 561
M  V30 561 1 561 562
M  V30 562 1 561 563
M  V30 563 1 563 564
M  V30 564 2 563 565
M  V30 565 1 565 566
M  V30 566 1 565 567
M  V30 567 1 567 568
M  V30 568 2 567 569
M  V30 569 1 569 570
M  V30 570 1 569 560
M  V30 571 1 559 571
M  V30 572 1 566 572
M  V30 573 1 573 574
M  V30 574 2 574 575
M  V30 575 1 575 576
M  V30 576 1 575 577
M  V30 577 1 577 578
M  V30 578 2 577 579
M  V30 579 1 579 580
M  V30 580 1 579 581
M  V30 581 1 581 582
M  V30 582 2 581 583
M  V30 583 1 583 584
M  V30 584 1 583 574
M  V30 585 1 573 585
M  V30 586 1 580 586
M  V30 587 1 587 588
M  V30 588 2 588 589
M  V30 589 1 589 590
M  V30 590 1 589 591
M  V30 591 1 591 592
M  V30 592 2 591 593
M  V30 593 1 593 594
M  V30 594 1 593 595
M  V30 595 1 595 596
M  V30 596 2 595 597
M  V30 597 1 597 598
M  V30 598 1 597 588
M  V30 599 1 587 599
M  V30 600 1 594 600
M  V30 601 2 1 181
M  V30 602 2 118 188
M  V30 603 2 5 195
M  V30 604 2 109 202
M  V30 605 2 8 209
M  V30 606 2 28 216
M  V30 607 2 10 223
M  V30 608 2 127 230
M  V30 609 2 17 237
M  V30 610 2 136 244
M  V30 611 2 14 251
M  V30 612 2 19 258
M  V30 613 2 23 265
M  V30 614 2 172 272
M  V30 615 2 26 279
M  V30 616 2 145 286
M  V30 617 2 35 293
M  V30 618 2 163 300
M  V30 619 2 32 307
M  V30 620 2 154 314
M  V30 621 2 37 321
M  V30 622 2 116 328
M  V30 623 2 41 335
M  V30 624 2 64 342
M  V30 625 2 44 349
M  V30 626 2 158 356
M  V30 627 2 46 363
M  V30 628 2 55 370
M  V30 629 2 53 377
M  V30 630 2 170 384
M  V30 631 2 50 391
M  V30 632 2 122 398
M  V30 633 2 62 405
M  V30 634 2 134 412
M  V30 635 2 59 419
M  V30 636 2 176 426
M  V30 637 2 68 433
M  V30 638 2 140 440
M  V30 639 2 71 447
M  V30 640 2 152 454
M  V30 641 2 73 461
M  V30 642 2 100 468
M  V30 643 2 80 475
M  V30 644 2 113 482
M  V30 645 2 77 489
M  V30 646 2 143 496
M  V30 647 2 82 503
M  V30 648 2 91 510
M  V30 649 2 86 517
M  V30 650 2 161 524
M  V30 651 2 89 531
M  V30 652 2 149 538
M  V30 653 2 98 545
M  V30 654 2 167 552
M  V30 655 2 95 559
M  V30 656 2 179 566
M  V30 657 2 107 573
M  V30 658 2 131 580
M  V30 659 2 104 587
M  V30 660 2 125 594
M  V30 END BOND
M  V30 END CTAB
M  END

$$$$
