
     RDKit          3D

  0  0  0  0  0  0  0  0  0  0999 V3000
M  V30 BEGIN CTAB
M  V30 COUNTS 416 444 0 0 0
M  V30 BEGIN ATOM
M  V30 1 N -9.0921 13.5546 -13.5546 0
M  V30 2 C -8.9526 13.1376 -12.1837 0
M  V30 3 C -10.1115 12.2962 -11.6895 0
M  V30 4 C -11.3543 13.1088 -11.7936 0
M  V30 5 N -12.5468 12.3316 -11.3116 0
M  V30 6 C -13.5425 13.4349 -11.2769 0
M  V30 7 C -14.8951 13.0713 -10.8330 0
M  V30 8 C -14.8765 12.4812 -9.4428 0
M  V30 9 N -14.3358 13.3948 -8.4707 0
M  V30 10 C -12.8709 11.5102 -12.4968 0
M  V30 11 C -13.7184 10.3234 -12.2082 0
M  V30 12 C -13.9959 9.6378 -13.5424 0
M  V30 13 N -12.7733 9.2519 -14.1760 0
M  V30 14 H -8.9579 14.0858 -11.5640 0
M  V30 15 H -7.9777 12.6524 -11.9824 0
M  V30 16 H -9.9051 11.9605 -10.6431 0
M  V30 17 H -10.1838 11.3818 -12.2860 0
M  V30 18 H -11.5141 13.3996 -12.8325 0
M  V30 19 H -11.2157 14.0222 -11.1909 0
M  V30 20 H -13.1094 14.1694 -10.5417 0
M  V30 21 H -13.5139 13.9238 -12.2829 0
M  V30 22 H -15.4943 12.5533 -11.5691 0
M  V30 23 H -15.4472 14.0862 -10.7453 0
M  V30 24 H -15.9170 12.1954 -9.1710 0
M  V30 25 H -14.2556 11.5677 -9.4377 0
M  V30 26 H -13.3935 12.2063 -13.2253 0
M  V30 27 H -11.9660 11.1719 -13.0229 0
M  V30 28 H -13.0952 9.5368 -11.6507 0
M  V30 29 H -14.5896 10.4480 -11.5796 0
M  V30 30 H -14.6408 10.2990 -14.1388 0
M  V30 31 H -14.5809 8.7073 -13.3244 0
M  V30 32 N -13.5546 -9.0921 -13.5546 0
M  V30 33 C -13.1376 -8.9526 -12.1837 0
M  V30 34 C -12.2962 -10.1115 -11.6895 0
M  V30 35 C -13.1088 -11.3543 -11.7936 0
M  V30 36 N -12.3316 -12.5468 -11.3116 0
M  V30 37 C -13.4349 -13.5425 -11.2769 0
M  V30 38 C -13.0713 -14.8951 -10.8330 0
M  V30 39 C -12.4812 -14.8765 -9.4428 0
M  V30 40 N -13.3948 -14.3358 -8.4707 0
M  V30 41 C -11.5102 -12.8709 -12.4968 0
M  V30 42 C -10.3234 -13.7184 -12.2082 0
M  V30 43 C -9.6378 -13.9959 -13.5424 0
M  V30 44 N -9.2519 -12.7733 -14.1760 0
M  V30 45 H -14.0858 -8.9579 -11.5640 0
M  V30 46 H -12.6524 -7.9777 -11.9824 0
M  V30 47 H -11.9605 -9.9051 -10.6431 0
M  V30 48 H -11.3818 -10.1838 -12.2860 0
M  V30 49 H -13.3996 -11.5141 -12.8325 0
M  V30 50 H -14.0222 -11.2157 -11.1909 0
M  V30 51 H -14.1694 -13.1094 -10.5417 0
M  V30 52 H -13.9238 -13.5139 -12.2829 0
M  V30 53 H -12.5533 -15.4943 -11.5691 0
M  V30 54 H -14.0862 -15.4472 -10.7453 0
M  V30 55 H -12.1954 -15.9170 -9.1710 0
M  V30 56 H -11.5677 -14.2556 -9.4377 0
M  V30 57 H -12.2063 -13.3935 -13.2253 0
M  V30 58 H -11.1719 -11.9660 -13.0229 0
M  V30 59 H -9.5368 -13.0952 -11.6507 0
M  V30 60 H -10.4480 -14.5896 -11.5796 0
M  V30 61 H -10.2990 -14.6408 -14.1388 0
M  V30 62 H -8.7073 -14.5809 -13.3244 0
M  V30 63 N 9.0921 13.5546 -13.5546 0
M  V30 64 C 8.9526 12.1837 -13.1376 0
M  V30 65 C 10.1115 11.6895 -12.2962 0
M  V30 66 C 11.3543 11.7936 -13.1088 0
M  V30 67 N 12.5468 11.3116 -12.3316 0
M  V30 68 C 13.5425 11.2769 -13.4349 0
M  V30 69 C 14.8951 10.8330 -13.0713 0
M  V30 70 C 14.8765 9.4428 -12.4812 0
M  V30 71 N 14.3358 8.4707 -13.3948 0
M  V30 72 C 12.8709 12.4968 -11.5102 0
M  V30 73 C 13.7184 12.2082 -10.3234 0
M  V30 74 C 13.9959 13.5424 -9.6378 0
M  V30 75 N 12.7733 14.1760 -9.2519 0
M  V30 76 H 8.9579 11.5640 -14.0858 0
M  V30 77 H 7.9777 11.9824 -12.6524 0
M  V30 78 H 9.9051 10.6431 -11.9605 0
M  V30 79 H 10.1838 12.2860 -11.3818 0
M  V30 80 H 11.5141 12.8325 -13.3996 0
M  V30 81 H 11.2157 11.1909 -14.0222 0
M  V30 82 H 13.1094 10.5417 -14.1694 0
M  V30 83 H 13.5139 12.2829 -13.9238 0
M  V30 84 H 15.4943 11.5691 -12.5533 0
M  V30 85 H 15.4472 10.7453 -14.0862 0
M  V30 86 H 15.9170 9.1710 -12.1954 0
M  V30 87 H 14.2556 9.4377 -11.5677 0
M  V30 88 H 13.3935 13.2253 -12.2063 0
M  V30 89 H 11.9660 13.0229 -11.1719 0
M  V30 90 H 13.0952 11.6507 -9.5368 0
M  V30 91 H 14.5896 11.5796 -10.4480 0
M  V30 92 H 14.6408 14.1388 -10.2990 0
M  V30 93 H 14.5809 13.3244 -8.7073 0
M  V30 94 N 9.0921 -13.5546 -13.5546 0
M  V30 95 C 8.9526 -13.1376 -12.1837 0
M  V30 96 C 10.1115 -12.2962 -11.6895 0
M  V30 97 C 11.3543 -13.1088 -11.7936 0
M  V30 98 N 12.5468 -12.3316 -11.3116 0
M  V30 99 C 13.5425 -13.4349 -11.2769 0
M  V30 100 C 14.8951 -13.0713 -10.8330 0
M  V30 101 C 14.8765 -12.4812 -9.4428 0
M  V30 102 N 14.3358 -13.3948 -8.4707 0
M  V30 103 C 12.8709 -11.5102 -12.4968 0
M  V30 104 C 13.7184 -10.3234 -12.2082 0
M  V30 105 C 13.9959 -9.6378 -13.5424 0
M  V30 106 N 12.7733 -9.2519 -14.1760 0
M  V30 107 H 8.9579 -14.0858 -11.5640 0
M  V30 108 H 7.9777 -12.6524 -11.9824 0
M  V30 109 H 9.9051 -11.9605 -10.6431 0
M  V30 110 H 10.1838 -11.3818 -12.2860 0
M  V30 111 H 11.5141 -13.3996 -12.8325 0
M  V30 112 H 11.2157 -14.0222 -11.1909 0
M  V30 113 H 13.1094 -14.1694 -10.5417 0
M  V30 114 H 13.5139 -13.9238 -12.2829 0
M  V30 115 H 15.4943 -12.5533 -11.5691 0
M  V30 116 H 15.4472 -14.0862 -10.7453 0
M  V30 117 H 15.9170 -12.1954 -9.1710 0
M  V30 118 H 14.2556 -11.5677 -9.4377 0
M  V30 119 H 13.3935 -12.2063 -13.2253 0
M  V30 120 H 11.9660 -11.1719 -13.0229 0
M  V30 121 H 13.0952 -9.5368 -11.6507 0
M  V30 122 H 14.5896 -10.4480 -11.5796 0
M  V30 123 H 14.6408 -10.2990 -14.1388 0
M  V30 124 H 14.5809 -8.7073 -13.3244 0
M  V30 125 N -9.0921 13.5546 13.5546 0
M  V30 126 C -8.9526 12.1837 13.1376 0
M  V30 127 C -10.1115 11.6895 12.2962 0
M  V30 128 C -11.3543 11.7936 13.1088 0
M  V30 129 N -12.5468 11.3116 12.3316 0
M  V30 130 C -13.5425 11.2769 13.4349 0
M  V30 131 C -14.8951 10.8330 13.0713 0
M  V30 132 C -14.8765 9.4428 12.4812 0
M  V30 133 N -14.3358 8.4707 13.3948 0
M  V30 134 C -12.8709 12.4968 11.5102 0
M  V30 135 C -13.7184 12.2082 10.3234 0
M  V30 136 C -13.9959 13.5424 9.6378 0
M  V30 137 N -12.7733 14.1760 9.2519 0
M  V30 138 H -8.9579 11.5640 14.0858 0
M  V30 139 H -7.9777 11.9824 12.6524 0
M  V30 140 H -9.9051 10.6431 11.9605 0
M  V30 141 H -10.1838 12.2860 11.3818 0
M  V30 142 H -11.5141 12.8325 13.3996 0
M  V30 143 H -11.2157 11.1909 14.0222 0
M  V30 144 H -13.1094 10.5417 14.1694 0
M  V30 145 H -13.5139 12.2829 13.9238 0
M  V30 146 H -15.4943 11.5691 12.5533 0
M  V30 147 H -15.4472 10.7453 14.0862 0
M  V30 148 H -15.9170 9.1710 12.1954 0
M  V30 149 H -14.2556 9.4377 11.5677 0
M  V30 150 H -13.3935 13.2253 12.2063 0
M  V30 151 H -11.9660 13.0229 11.1719 0
M  V30 152 H -13.0952 11.6507 9.5368 0
M  V30 153 H -14.5896 11.5796 10.4480 0
M  V30 154 H -14.6408 14.1388 10.2990 0
M  V30 155 H -14.5809 13.3244 8.7073 0
M  V30 156 N -13.5546 -9.0921 13.5546 0
M  V30 157 C -12.1837 -8.9526 13.1376 0
M  V30 158 C -11.6895 -10.1115 12.2962 0
M  V30 159 C -11.7936 -11.3543 13.1088 0
M  V30 160 N -11.3116 -12.5468 12.3316 0
M  V30 161 C -11.2769 -13.5425 13.4349 0
M  V30 162 C -10.8330 -14.8951 13.0713 0
M  V30 163 C -9.4428 -14.8765 12.4812 0
M  V30 164 N -8.4707 -14.3358 13.3948 0
M  V30 165 C -12.4968 -12.8709 11.5102 0
M  V30 166 C -12.2082 -13.7184 10.3234 0
M  V30 167 C -13.5424 -13.9959 9.6378 0
M  V30 168 N -14.1760 -12.7733 9.2519 0
M  V30 169 H -11.5640 -8.9579 14.0858 0
M  V30 170 H -11.9824 -7.9777 12.6524 0
M  V30 171 H -10.6431 -9.9051 11.9605 0
M  V30 172 H -12.2860 -10.1838 11.3818 0
M  V30 173 H -12.8325 -11.5141 13.3996 0
M  V30 174 H -11.1909 -11.2157 14.0222 0
M  V30 175 H -10.5417 -13.1094 14.1694 0
M  V30 176 H -12.2829 -13.5139 13.9238 0
M  V30 177 H -11.5691 -15.4943 12.5533 0
M  V30 178 H -10.7453 -15.4472 14.0862 0
M  V30 179 H -9.1710 -15.9170 12.1954 0
M  V30 180 H -9.4377 -14.2556 11.5677 0
M  V30 181 H -13.2253 -13.3935 12.2063 0
M  V30 182 H -13.0229 -11.9660 11.1719 0
M  V30 183 H -11.6507 -13.0952 9.5368 0
M  V30 184 H -11.5796 -14.5896 10.4480 0
M  V30 185 H -14.1388 -14.6408 10.2990 0
M  V30 186 H -13.3244 -14.5809 8.7073 0
M  V30 187 N 9.0921 13.5546 13.5546 0
M  V30 188 C 8.9526 13.1376 12.1837 0
M  V30 189 C 10.1115 12.2962 11.6895 0
M  V30 190 C 11.3543 13.1088 11.7936 0
M  V30 191 N 12.5468 12.3316 11.3116 0
M  V30 192 C 13.5425 13.4349 11.2769 0
M  V30 193 C 14.8951 13.0713 10.8330 0
M  V30 194 C 14.8765 12.4812 9.4428 0
M  V30 195 N 14.3358 13.3948 8.4707 0
M  V30 196 C 12.8709 11.5102 12.4968 0
M  V30 197 C 13.7184 10.3234 12.2082 0
M  V30 198 C 13.9959 9.6378 13.5424 0
M  V30 199 N 12.7733 9.2519 14.1760 0
M  V30 200 H 8.9579 14.0858 11.5640 0
M  V30 201 H 7.9777 12.6524 11.9824 0
M  V30 202 H 9.9051 11.9605 10.6431 0
M  V30 203 H 10.1838 11.3818 12.2860 0
M  V30 204 H 11.5141 13.3996 12.8325 0
M  V30 205 H 11.2157 14.0222 11.1909 0
M  V30 206 H 13.1094 14.1694 10.5417 0
M  V30 207 H 13.5139 13.9238 12.2829 0
M  V30 208 H 15.4943 12.5533 11.5691 0
M  V30 209 H 15.4472 14.0862 10.7453 0
M  V30 210 H 15.9170 12.1954 9.1710 0
M  V30 211 H 14.2556 11.5677 9.4377 0
M  V30 212 H 13.3935 12.2063 13.2253 0
M  V30 213 H 11.9660 11.1719 13.0229 0
M  V30 214 H 13.0952 9.5368 11.6507 0
M  V30 215 H 14.5896 10.4480 11.5796 0
M  V30 216 H 14.6408 10.2990 14.1388 0
M  V30 217 H 14.5809 8.7073 13.3244 0
M  V30 218 N 9.0921 -13.5546 13.5546 0
M  V30 219 C 8.9526 -12.1837 13.1376 0
M  V30 220 C 10.1115 -11.6895 12.2962 0
M  V30 221 C 11.3543 -11.7936 13.1088 0
M  V30 222 N 12.5468 -11.3116 12.3316 0
M  V30 223 C 13.5425 -11.2769 13.4349 0
M  V30 224 C 14.8951 -10.8330 13.0713 0
M  V30 225 C 14.8765 -9.4428 12.4812 0
M  V30 226 N 14.3358 -8.4707 13.3948 0
M  V30 227 C 12.8709 -12.4968 11.5102 0
M  V30 228 C 13.7184 -12.2082 10.3234 0
M  V30 229 C 13.9959 -13.5424 9.6378 0
M  V30 230 N 12.7733 -14.1760 9.2519 0
M  V30 231 H 8.9579 -11.5640 14.0858 0
M  V30 232 H 7.9777 -11.9824 12.6524 0
M  V30 233 H 9.9051 -10.6431 11.9605 0
M  V30 234 H 10.1838 -12.2860 11.3818 0
M  V30 235 H 11.5141 -12.8325 13.3996 0
M  V30 236 H 11.2157 -11.1909 14.0222 0
M  V30 237 H 13.1094 -10.5417 14.1694 0
M  V30 238 H 13.5139 -12.2829 13.9238 0
M  V30 239 H 15.4943 -11.5691 12.5533 0
M  V30 240 H 15.4472 -10.7453 14.0862 0
M  V30 241 H 15.9170 -9.1710 12.1954 0
M  V30 242 H 14.2556 -9.4377 11.5677 0
M  V30 243 H 13.3935 -13.2253 12.2063 0
M  V30 244 H 11.9660 -13.0229 11.1719 0
M  V30 245 H 13.0952 -11.6507 9.5368 0
M  V30 246 H 14.5896 -11.5796 10.4480 0
M  V30 247 H 14.6408 -14.1388 10.2990 0
M  V30 248 H 14.5809 -13.3244 8.7073 0
M  V30 249 C -3.8693 13.5546 -13.5546 0
M  V30 250 C -2.4284 13.5810 -13.5807 0
M  V30 251 C -1.5014 12.8836 -12.8929 0
M  V30 252 C -0.2151 13.1536 -13.1591 0
M  V30 253 S 1.4213 12.4783 -12.4932 0
M  V30 254 C 2.4330 13.5370 -13.5372 0
M  V30 255 C 3.8693 13.5546 -13.5546 0
M  V30 256 C 1.5055 14.2325 -14.2231 0
M  V30 257 C 0.2187 13.9515 -13.9460 0
M  V30 258 S -1.4218 14.6276 -14.6128 0
M  V30 259 H -4.3682 12.8879 -12.8971 0
M  V30 260 H -1.8298 12.1258 -12.1457 0
M  V30 261 H 4.3885 14.2158 -14.2066 0
M  V30 262 H 1.8339 14.9917 -14.9718 0
M  V30 263 C -13.1639 3.9492 -13.8653 0
M  V30 264 C -13.1893 2.5083 -13.8924 0
M  V30 265 C -12.5199 1.5813 -13.1774 0
M  V30 266 C -12.7790 0.2950 -13.4542 0
M  V30 267 S -12.1309 -1.3414 -12.7619 0
M  V30 268 C -13.1471 -2.3531 -13.8472 0
M  V30 269 C -13.1639 -3.7894 -13.8653 0
M  V30 270 C -13.8147 -1.4256 -14.5604 0
M  V30 271 C -13.5450 -0.1388 -14.2722 0
M  V30 272 S -14.1939 1.5017 -14.9654 0
M  V30 273 H -12.5240 4.4481 -13.1818 0
M  V30 274 H -11.7926 1.9097 -12.4005 0
M  V30 275 H -13.7986 -4.3086 -14.5432 0
M  V30 276 H -14.5434 -1.7540 -15.3387 0
M  V30 277 C -3.9492 -13.1639 -13.8653 0
M  V30 278 C -2.5083 -13.1893 -13.8924 0
M  V30 279 C -1.5813 -12.5199 -13.1774 0
M  V30 280 C -0.2950 -12.7790 -13.4542 0
M  V30 281 S 1.3414 -12.1309 -12.7619 0
M  V30 282 C 2.3531 -13.1471 -13.8472 0
M  V30 283 C 3.7894 -13.1639 -13.8653 0
M  V30 284 C 1.4256 -13.8147 -14.5604 0
M  V30 285 C 0.1388 -13.5450 -14.2722 0
M  V30 286 S -1.5017 -14.1939 -14.9654 0
M  V30 287 H -4.4481 -12.5240 -13.1818 0
M  V30 288 H -1.9097 -11.7926 -12.4005 0
M  V30 289 H 4.3086 -13.7986 -14.5432 0
M  V30 290 H 1.7540 -14.5434 -15.3387 0
M  V30 291 C 13.5546 3.4787 -13.7854 0
M  V30 292 C 13.5808 2.0378 -13.8117 0
M  V30 293 C 12.8892 1.1108 -13.1181 0
M  V30 294 C 13.1569 -0.1755 -13.3866 0
M  V30 295 S 12.4873 -1.8119 -12.7150 0
M  V30 296 C 13.5371 -2.8236 -13.7679 0
M  V30 297 C 13.5546 -4.2600 -13.7854 0
M  V30 298 C 14.2269 -1.8961 -14.4597 0
M  V30 299 C 13.9482 -0.6094 -14.1802 0
M  V30 300 S 14.6186 1.0312 -14.8526 0
M  V30 301 H 12.8934 3.9775 -13.1223 0
M  V30 302 H 12.1378 1.4392 -12.3645 0
M  V30 303 H 14.2102 -4.7792 -14.4430 0
M  V30 304 H 14.9797 -2.2246 -15.2147 0
M  V30 305 C -3.8693 13.5546 13.5546 0
M  V30 306 C -2.4284 13.5807 13.5810 0
M  V30 307 C -1.5014 12.8929 12.8836 0
M  V30 308 C -0.2151 13.1591 13.1536 0
M  V30 309 S 1.4213 12.4932 12.4783 0
M  V30 310 C 2.4330 13.5372 13.5370 0
M  V30 311 C 3.8693 13.5546 13.5546 0
M  V30 312 C 1.5055 14.2231 14.2325 0
M  V30 313 C 0.2187 13.9460 13.9515 0
M  V30 314 S -1.4218 14.6128 14.6276 0
M  V30 315 H -4.3682 12.8971 12.8879 0
M  V30 316 H -1.8298 12.1457 12.1258 0
M  V30 317 H 4.3885 14.2066 14.2158 0
M  V30 318 H 1.8339 14.9718 14.9917 0
M  V30 319 C -13.9452 3.5586 13.4747 0
M  V30 320 C -13.9721 2.1177 13.5003 0
M  V30 321 C -13.2629 1.1907 12.8246 0
M  V30 322 C -13.5375 -0.0956 13.0862 0
M  V30 323 S -12.8509 -1.7320 12.4319 0
M  V30 324 C -13.9273 -2.7437 13.4576 0
M  V30 325 C -13.9452 -4.1801 13.4747 0
M  V30 326 C -14.6345 -1.8162 14.1315 0
M  V30 327 C -14.3488 -0.5294 13.8592 0
M  V30 328 S -15.0362 1.1111 14.5143 0
M  V30 329 H -13.2673 4.0574 12.8288 0
M  V30 330 H -12.4925 1.5191 12.0905 0
M  V30 331 H -14.6175 -4.6993 14.1153 0
M  V30 332 H -15.4064 -2.1446 14.8670 0
M  V30 333 C -3.5586 -13.9452 13.4747 0
M  V30 334 C -2.1177 -13.9721 13.5003 0
M  V30 335 C -1.1907 -13.2629 12.8246 0
M  V30 336 C 0.0956 -13.5375 13.0862 0
M  V30 337 S 1.7320 -12.8509 12.4319 0
M  V30 338 C 2.7437 -13.9273 13.4576 0
M  V30 339 C 4.1801 -13.9452 13.4747 0
M  V30 340 C 1.8162 -14.6345 14.1315 0
M  V30 341 C 0.5294 -14.3488 13.8592 0
M  V30 342 S -1.1111 -15.0362 14.5143 0
M  V30 343 H -4.0574 -13.2673 12.8288 0
M  V30 344 H -1.5191 -12.4925 12.0905 0
M  V30 345 H 4.6993 -14.6175 14.1153 0
M  V30 346 H 2.1446 -15.4064 14.8670 0
M  V30 347 C 13.5546 4.2600 13.7854 0
M  V30 348 C 13.5804 2.8190 13.8120 0
M  V30 349 C 12.8986 1.8920 13.1088 0
M  V30 350 C 13.1625 0.6057 13.3811 0
M  V30 351 S 12.5024 -1.0306 12.7002 0
M  V30 352 C 13.5374 -2.0423 13.7676 0
M  V30 353 C 13.5546 -3.4787 13.7854 0
M  V30 354 C 14.2174 -1.1149 14.4690 0
M  V30 355 C 13.9427 0.1719 14.1856 0
M  V30 356 S 14.6037 1.8124 14.8673 0
M  V30 357 H 12.9028 4.7588 13.1132 0
M  V30 358 H 12.1578 2.2204 12.3448 0
M  V30 359 H 14.2010 -3.9979 14.4521 0
M  V30 360 H 14.9596 -1.4433 15.2344 0
M  V30 361 C -13.5546 13.7854 -3.4787 0
M  V30 362 C -13.5808 13.8117 -2.0378 0
M  V30 363 C -12.8892 13.1181 -1.1108 0
M  V30 364 C -13.1569 13.3866 0.1755 0
M  V30 365 S -12.4873 12.7150 1.8119 0
M  V30 366 C -13.5371 13.7679 2.8236 0
M  V30 367 C -13.5546 13.7854 4.2600 0
M  V30 368 C -14.2269 14.4597 1.8961 0
M  V30 369 C -13.9482 14.1802 0.6094 0
M  V30 370 S -14.6186 14.8526 -1.0312 0
M  V30 371 H -12.8934 13.1223 -3.9775 0
M  V30 372 H -12.1378 12.3645 -1.4392 0
M  V30 373 H -14.2102 14.4430 4.7792 0
M  V30 374 H -14.9797 15.2147 2.2246 0
M  V30 375 C -13.7854 -13.5546 -3.4787 0
M  V30 376 C -13.8117 -13.5808 -2.0378 0
M  V30 377 C -13.1181 -12.8892 -1.1108 0
M  V30 378 C -13.3866 -13.1569 0.1755 0
M  V30 379 S -12.7150 -12.4873 1.8119 0
M  V30 380 C -13.7679 -13.5371 2.8236 0
M  V30 381 C -13.7854 -13.5546 4.2600 0
M  V30 382 C -14.4597 -14.2269 1.8961 0
M  V30 383 C -14.1802 -13.9482 0.6094 0
M  V30 384 S -14.8526 -14.6186 -1.0312 0
M  V30 385 H -13.1223 -12.8934 -3.9775 0
M  V30 386 H -12.3645 -12.1378 -1.4392 0
M  V30 387 H -14.4430 -14.2102 4.7792 0
M  V30 388 H -15.2147 -14.9797 2.2246 0
M  V30 389 C 13.5546 13.7854 -4.2600 0
M  V30 390 C 13.5804 13.8120 -2.8190 0
M  V30 391 C 12.8986 13.1088 -1.8920 0
M  V30 392 C 13.1625 13.3811 -0.6057 0
M  V30 393 S 12.5024 12.7002 1.0306 0
M  V30 394 C 13.5374 13.7676 2.0423 0
M  V30 395 C 13.5546 13.7854 3.4787 0
M  V30 396 C 14.2174 14.4690 1.1149 0
M  V30 397 C 13.9427 14.1856 -0.1719 0
M  V30 398 S 14.6037 14.8673 -1.8124 0
M  V30 399 H 12.9028 13.1132 -4.7588 0
M  V30 400 H 12.1578 12.3448 -2.2204 0
M  V30 401 H 14.2010 14.4521 3.9979 0
M  V30 402 H 14.9596 15.2344 1.4433 0
M  V30 403 C 13.5546 -13.7854 -3.4787 0
M  V30 404 C 13.5808 -13.8117 -2.0378 0
M  V30 405 C 12.8892 -13.1181 -1.1108 0
M  V30 406 C 13.1569 -13.3866 0.1755 0
M  V30 407 S 12.4873 -12.7150 1.8119 0
M  V30 408 C 13.5371 -13.7679 2.8236 0
M  V30 409 C 13.5546 -13.7854 4.2600 0
M  V30 410 C 14.2269 -14.4597 1.8961 0
M  V30 411 C 13.9482 -14.1802 0.6094 0
M  V30 412 S 14.6186 -14.8526 -1.0312 0
M  V30 413 H 12.8934 -13.1223 -3.9775 0
M  V30 414 H 12.1378 -12.3645 -1.4392 0
M  V30 415 H 14.2102 -14.4430 4.7792 0
M  V30 416 H 14.9797 -15.2147 2.2246 0
M  V30 END ATOM
M  V30 BEGIN BOND
M  V30 1 1 1 2
M  V30 2 1 2 3
M  V30 3 1 3 4
M  V30 4 1 4 5
M  V30 5 1 5 6
M  V30 6 1 6 7
M  V30 7 1 7 8
M  V30 8 1 8 9
M  V30 9 1 5 10
M  V30 10 1 10 11
M  V30 11 1 11 12
M  V30 12 1 12 13
M  V30 13 1 2 14
M  V30 14 1 2 15
M  V30 15 1 3 16
M  V30 16 1 3 17
M  V30 17 1 4 18
M  V30 18 1 4 19
M  V30 19 1 6 20
M  V30 20 1 6 21
M  V30 21 1 7 22
M  V30 22 1 7 23
M  V30 23 1 8 24
M  V30 24 1 8 25
M  V30 25 1 10 26
M  V30 26 1 10 27
M  V30 27 1 11 28
M  V30 28 1 11 29
M  V30 29 1 12 30
M  V30 30 1 12 31
M  V30 31 1 32 33
M  V30 32 1 33 34
M  V30 33 1 34 35
M  V30 34 1 35 36
M  V30 35 1 36 37
M  V30 36 1 37 38
M  V30 37 1 38 39
M  V30 38 1 39 40
M  V30 39 1 36 41
M  V30 40 1 41 42
M  V30 41 1 42 43
M  V30 42 1 43 44
M  V30 43 1 33 45
M  V30 44 1 33 46
M  V30 45 1 34 47
M  V30 46 1 34 48
M  V30 47 1 35 49
M  V30 48 1 35 50
M  V30 49 1 37 51
M  V30 50 1 37 52
M  V30 51 1 38 53
M  V30 52 1 38 54
M  V30 53 1 39 55
M  V30 54 1 39 56
M  V30 55 1 41 57
M  V30 56 1 41 58
M  V30 57 1 42 59
M  V30 58 1 42 60
M  V30 59 1 43 61
M  V30 60 1 43 62
M  V30 61 1 63 64
M  V30 62 1 64 65
M  V30 63 1 65 66
M  V30 64 1 66 67
M  V30 65 1 67 68
M  V30 66 1 68 69
M  V30 67 1 69 70
M  V30 68 1 70 71
M  V30 69 1 67 72
M  V30 70 1 72 73
M  V30 71 1 73 74
M  V30 72 1 74 75
M  V30 73 1 64 76
M  V30 74 1 64 77
M  V30 75 1 65 78
M  V30 76 1 65 79
M  V30 77 1 66 80
M  V30 78 1 66 81
M  V30 79 1 68 82
M  V30 80 1 68 83
M  V30 81 1 69 84
M  V30 82 1 69 85
M  V30 83 1 70 86
M  V30 84 1 70 87
M  V30 85 1 72 88
M  V30 86 1 72 89
M  V30 87 1 73 90
M  V30 88 1 73 91
M  V30 89 1 74 92
M  V30 90 1 74 93
M  V30 91 1 94 95
M  V30 92 1 95 96
M  V30 93 1 96 97
M  V30 94 1 97 98
M  V30 95 1 98 99
M  V30 96 1 99 100
M  V30 97 1 100 101
M  V30 98 1 101 102
M  V30 99 1 98 103
M  V30 100 1 103 104
M  V30 101 1 104 105
M  V30 102 1 105 106
M  V30 103 1 95 107
M  V30 104 1 95 108
M  V30 105 1 96 109
M  V30 106 1 96 110
M  V30 107 1 97 111
M  V30 108 1 97 112
M  V30 109 1 99 113
M  V30 110 1 99 114
M  V30 111 1 100 115
M  V30 112 1 100 116
M  V30 113 1 101 117
M  V30 114 1 101 118
M  V30 115 1 103 119
M  V30 116 1 103 120
M  V30 117 1 104 121
M  V30 118 1 104 122
M  V30 119 1 105 123
M  V30 120 1 105 124
M  V30 121 1 125 126
M  V30 122 1 126 127
M  V30 123 1 127 128
M  V30 124 1 128 129
M  V30 125 1 129 130
M  V30 126 1 130 131
M  V30 127 1 131 132
M  V30 128 1 132 133
M  V30 129 1 129 134
M  V30 130 1 134 135
M  V30 131 1 135 136
M  V30 132 1 136 137
M  V30 133 1 126 138
M  V30 134 1 126 139
M  V30 135 1 127 140
M  V30 136 1 127 141
M  V30 137 1 128 142
M  V30 138 1 128 143
M  V30 139 1 130 144
M  V30 140 1 130 145
M  V30 141 1 131 146
M  V30 142 1 131 147
M  V30 143 1 132 148
M  V30 144 1 132 149
M  V30 145 1 134 150
M  V30 146 1 134 151
M  V30 147 1 135 152
M  V30 148 1 135 153
M  V30 149 1 136 154
M  V30 150 1 136 155
M  V30 151 1 156 157
M  V30 152 1 157 158
M  V30 153 1 158 159
M  V30 154 1 159 160
M  V30 155 1 160 161
M  V30 156 1 161 162
M  V30 157 1 162 163
M  V30 158 1 163 164
M  V30 159 1 160 165
M  V30 160 1 165 166
M  V30 161 1 166 167
M  V30 162 1 167 168
M  V30 163 1 157 169
M  V30 164 1 157 170
M  V30 165 1 158 171
M  V30 166 1 158 172
M  V30 167 1 159 173
M  V30 168 1 159 174
M  V30 169 1 161 175
M  V30 170 1 161 176
M  V30 171 1 162 177
M  V30 172 1 162 178
M  V30 173 1 163 179
M  V30 174 1 163 180
M  V30 175 1 165 181
M  V30 176 1 165 182
M  V30 177 1 166 183
M  V30 178 1 166 184
M  V30 179 1 167 185
M  V30 180 1 167 186
M  V30 181 1 187 188
M  V30 182 1 188 189
M  V30 183 1 189 190
M  V30 184 1 190 191
M  V30 185 1 191 192
M  V30 186 1 192 193
M  V30 187 1 193 194
M  V30 188 1 194 195
M  V30 189 1 191 196
M  V30 190 1 196 197
M  V30 191 1 197 198
M  V30 192 1 198 199
M  V30 193 1 188 200
M  V30 194 1 188 201
M  V30 195 1 189 202
M  V30 196 1 189 203
M  V30 197 1 190 204
M  V30 198 1 190 205
M  V30 199 1 192 206
M  V30 200 1 192 207
M  V30 201 1 193 208
M  V30 202 1 193 209
M  V30 203 1 194 210
M  V30 204 1 194 211
M  V30 205 1 196 212
M  V30 206 1 196 213
M  V30 207 1 197 214
M  V30 208 1 197 215
M  V30 209 1 198 216
M  V30 210 1 198 217
M  V30 211 1 218 219
M  V30 212 1 219 220
M  V30 213 1 220 221
M  V30 214 1 221 222
M  V30 215 1 222 223
M  V30 216 1 223 224
M  V30 217 1 224 225
M  V30 218 1 225 226
M  V30 219 1 222 227
M  V30 220 1 227 228
M  V30 221 1 228 229
M  V30 222 1 229 230
M  V30 223 1 219 231
M  V30 224 1 219 232
M  V30 225 1 220 233
M  V30 226 1 220 234
M  V30 227 1 221 235
M  V30 228 1 221 236
M  V30 229 1 223 237
M  V30 230 1 223 238
M  V30 231 1 224 239
M  V30 232 1 224 240
M  V30 233 1 225 241
M  V30 234 1 225 242
M  V30 235 1 227 243
M  V30 236 1 227 244
M  V30 237 1 228 245
M  V30 238 1 228 246
M  V30 239 1 229 247
M  V30 240 1 229 248
M  V30 241 1 249 250
M  V30 242 2 250 251
M  V30 243 1 251 252
M  V30 244 1 252 253
M  V30 245 1 253 254
M  V30 246 1 254 255
M  V30 247 2 254 256
M  V30 248 1 256 257
M  V30 249 1 257 258
M  V30 250 1 258 250
M  V30 251 2 257 252
M  V30 252 1 249 259
M  V30 253 1 251 260
M  V30 254 1 255 261
M  V30 255 1 256 262
M  V30 256 1 263 264
M  V30 257 2 264 265
M  V30 258 1 265 266
M  V30 259 1 266 267
M  V30 260 1 267 268
M  V30 261 1 268 269
M  V30 262 2 268 270
M  V30 263 1 270 271
M  V30 264 1 271 272
M  V30 265 1 272 264
M  V30 266 2 271 266
M  V30 267 1 263 273
M  V30 268 1 265 274
M  V30 269 1 269 275
M  V30 270 1 270 276
M  V30 271 1 277 278
M  V30 272 2 278 279
M  V30 273 1 279 280
M  V30 274 1 280 281
M  V30 275 1 281 282
M  V30 276 1 282 283
M  V30 277 2 282 284
M  V30 278 1 284 285
M  V30 279 1 285 286
M  V30 280 1 286 278
M  V30 281 2 285 280
M  V30 282 1 277 287
M  V30 283 1 279 288
M  V30 284 1 283 289
M  V30 285 1 284 290
M  V30 286 1 291 292
M  V30 287 2 292 293
M  V30 288 1 293 294
M  V30 289 1 294 295
M  V30 290 1 295 296
M  V30 291 1 296 297
M  V30 292 2 296 298
M  V30 293 1 298 299
M  V30 294 1 299 300
M  V30 295 1 300 292
M  V30 296 2 299 294
M  V30 297 1 291 301
M  V30 298 1 293 302
M  V30 299 1 297 303
M  V30 300 1 298 304
M  V30 301 1 305 306
M  V30 302 2 306 307
M  V30 303 1 307 308
M  V30 304 1 308 309
M  V30 305 1 309 310
M  V30 306 1 310 311
M  V30 307 2 310 312
M  V30 308 1 312 313
M  V30 309 1 313 314
M  V30 310 1 314 306
M  V30 311 2 313 308
M  V30 312 1 305 315
M  V30 313 1 307 316
M  V30 314 1 311 317
M  V30 315 1 312 318
M  V30 316 1 319 320
M  V30 317 2 320 321
M  V30 318 1 321 322
M  V30 319 1 322 323
M  V30 320 1 323 324
M  V30 321 1 324 325
M  V30 322 2 324 326
M  V30 323 1 326 327
M  V30 324 1 327 328
M  V30 325 1 328 320
M  V30 326 2 327 322
M  V30 327 1 319 329
M  V30 328 1 321 330
M  V30 329 1 325 331
M  V30 330 1 326 332
M  V30 331 1 333 334
M  V30 332 2 334 335
M  V30 333 1 335 336
M  V30 334 1 336 337
M  V30 335 1 337 338
M  V30 336 1 338 339
M  V30 337 2 338 340
M  V30 338 1 340 341
M  V30 339 1 341 342
M  V30 340 1 342 334
M  V30 341 2 341 336
M  V30 342 1 333 343
M  V30 343 1 335 344
M  V30 344 1 339 345
M  V30 345 1 340 346
M  V30 346 1 347 348
M  V30 347 2 348 349
M  V30 348 1 349 350
M  V30 349 1 350 351
M  V30 350 1 351 352
M  V30 351 1 352 353
M  V30 352 2 352 354
M  V30 353 1 354 355
M  V30 354 1 355 356
M  V30 355 1 356 348
M  V30 356 2 355 350
M  V30 357 1 347 357
M  V30 358 1 349 358
M  V30 359 1 353 359
M  V30 360 1 354 360
M  V30 361 1 361 362
M  V30 362 2 362 363
M  V30 363 1 363 364
M  V30 364 1 364 365
M  V30 365 1 365 366
M  V30 366 1 366 367
M  V30 367 2 366 368
M  V30 368 1 368 369
M  V30 369 1 369 370
M  V30 370 1 370 362
M  V30 371 2 369 364
M  V30 372 1 361 371
M  V30 373 1 363 372
M  V30 374 1 367 373
M  V30 375 1 368 374
M  V30 376 1 375 376
M  V30 377 2 376 377
M  V30 378 1 377 378
M  V30 379 1 378 379
M  V30 380 1 379 380
M  V30 381 1 380 381
M  V30 382 2 380 382
M  V30 383 1 382 383
M  V30 384 1 383 384
M  V30 385 1 384 376
M  V30 386 2 383 378
M  V30 387 1 375 385
M  V30 388 1 377 386
M  V30 389 1 381 387
M  V30 390 1 382 388
M  V30 391 1 389 390
M  V30 392 2 390 391
M  V30 393 1 391 392
M  V30 394 1 392 393
M  V30 395 1 393 394
M  V30 396 1 394 395
M  V30 397 2 394 396
M  V30 398 1 396 397
M  V30 399 1 397 398
M  V30 400 1 398 390
M  V30 401 2 397 392
M  V30 402 1 389 399
M  V30 403 1 391 400
M  V30 404 1 395 401
M  V30 405 1 396 402
M  V30 406 1 403 404
M  V30 407 2 404 405
M  V30 408 1 405 406
M  V30 409 1 406 407
M  V30 410 1 407 408
M  V30 411 1 408 409
M  V30 412 2 408 410
M  V30 413 1 410 411
M  V30 414 1 411 412
M  V30 415 1 412 404
M  V30 416 2 411 406
M  V30 417 1 403 413
M  V30 418 1 405 414
M  V30 419 1 409 415
M  V30 420 1 410 416
M  V30 421 2 1 249
M  V30 422 2 63 255
M  V30 423 2 13 263
M  V30 424 2 32 269
M  V30 425 2 44 277
M  V30 426 2 94 283
M  V30 427 2 71 291
M  V30 428 2 106 297
M  V30 429 2 125 305
M  V30 430 2 187 311
M  V30 431 2 133 319
M  V30 432 2 156 325
M  V30 433 2 164 333
M  V30 434 2 218 339
M  V30 435 2 199 347
M  V30 436 2 226 353
M  V30 437 2 9 361
M  V30 438 2 137 367
M  V30 439 2 40 375
M  V30 440 2 168 381
M  V30 441 2 75 389
M  V30 442 2 195 395
M  V30 443 2 102 403
M  V30 444 2 230 409
M  V30 END BOND
M  V30 END CTAB
M  END

$$$$
