
     RDKit          3D

  0  0  0  0  0  0  0  0  0  0999 V3000
M  V30 BEGIN CTAB
M  V30 COUNTS 344 360 0 0 0
M  V30 BEGIN ATOM
M  V30 1 N -7.1515 11.7452 -11.7452 0
M  V30 2 C -7.9932 10.9567 -10.8239 0
M  V30 3 C -9.3169 10.8428 -11.4778 0
M  V30 4 N -10.3061 10.0535 -10.6993 0
M  V30 5 C -10.5932 10.8830 -9.5423 0
M  V30 6 C -11.6581 10.4376 -8.6230 0
M  V30 7 N -11.7337 11.4071 -7.5012 0
M  V30 8 C -11.4165 9.9092 -11.5822 0
M  V30 9 C -12.3797 8.8132 -11.3214 0
M  V30 10 N -11.7567 7.4897 -11.3955 0
M  V30 11 H -7.4647 10.0089 -10.6688 0
M  V30 12 H -8.0557 11.5888 -9.9181 0
M  V30 13 H -9.7572 11.8633 -11.5745 0
M  V30 14 H -9.3044 10.3936 -12.4728 0
M  V30 15 H -9.6601 10.9856 -8.9329 0
M  V30 16 H -10.7944 11.9122 -9.9673 0
M  V30 17 H -12.6425 10.6094 -9.1406 0
M  V30 18 H -11.5269 9.4616 -8.1850 0
M  V30 19 H -11.0825 9.8246 -12.6613 0
M  V30 20 H -12.0275 10.8717 -11.5596 0
M  V30 21 H -12.9784 8.8160 -10.4359 0
M  V30 22 H -13.1096 8.8370 -12.1897 0
M  V30 23 N -11.7452 -7.1515 -11.7452 0
M  V30 24 C -10.9567 -7.9932 -10.8239 0
M  V30 25 C -10.8428 -9.3169 -11.4778 0
M  V30 26 N -10.0535 -10.3061 -10.6993 0
M  V30 27 C -10.8830 -10.5932 -9.5423 0
M  V30 28 C -10.4376 -11.6581 -8.6230 0
M  V30 29 N -11.4071 -11.7337 -7.5012 0
M  V30 30 C -9.9092 -11.4165 -11.5822 0
M  V30 31 C -8.8132 -12.3797 -11.3214 0
M  V30 32 N -7.4897 -11.7567 -11.3955 0
M  V30 33 H -10.0089 -7.4647 -10.6688 0
M  V30 34 H -11.5888 -8.0557 -9.9181 0
M  V30 35 H -11.8633 -9.7572 -11.5745 0
M  V30 36 H -10.3936 -9.3044 -12.4728 0
M  V30 37 H -10.9856 -9.6601 -8.9329 0
M  V30 38 H -11.9122 -10.7944 -9.9673 0
M  V30 39 H -10.6094 -12.6425 -9.1406 0
M  V30 40 H -9.4616 -11.5269 -8.1850 0
M  V30 41 H -9.8246 -11.0825 -12.6613 0
M  V30 42 H -10.8717 -12.0275 -11.5596 0
M  V30 43 H -8.8160 -12.9784 -10.4359 0
M  V30 44 H -8.8370 -13.1096 -12.1897 0
M  V30 45 N 7.1515 11.7452 -11.7452 0
M  V30 46 C 7.9932 10.8239 -10.9567 0
M  V30 47 C 9.3169 11.4778 -10.8428 0
M  V30 48 N 10.3061 10.6993 -10.0535 0
M  V30 49 C 10.5932 9.5423 -10.8830 0
M  V30 50 C 11.6581 8.6230 -10.4376 0
M  V30 51 N 11.7337 7.5012 -11.4071 0
M  V30 52 C 11.4165 11.5822 -9.9092 0
M  V30 53 C 12.3797 11.3214 -8.8132 0
M  V30 54 N 11.7567 11.3955 -7.4897 0
M  V30 55 H 7.4647 10.6688 -10.0089 0
M  V30 56 H 8.0557 9.9181 -11.5888 0
M  V30 57 H 9.7572 11.5745 -11.8633 0
M  V30 58 H 9.3044 12.4728 -10.3936 0
M  V30 59 H 9.6601 8.9329 -10.9856 0
M  V30 60 H 10.7944 9.9673 -11.9122 0
M  V30 61 H 12.6425 9.1406 -10.6094 0
M  V30 62 H 11.5269 8.1850 -9.4616 0
M  V30 63 H 11.0825 12.6613 -9.8246 0
M  V30 64 H 12.0275 11.5596 -10.8717 0
M  V30 65 H 12.9784 10.4359 -8.8160 0
M  V30 66 H 13.1096 12.1897 -8.8370 0
M  V30 67 N 7.1515 -11.7452 -11.7452 0
M  V30 68 C 7.9932 -10.9567 -10.8239 0
M  V30 69 C 9.3169 -10.8428 -11.4778 0
M  V30 70 N 10.3061 -10.0535 -10.6993 0
M  V30 71 C 10.5932 -10.8830 -9.5423 0
M  V30 72 C 11.6581 -10.4376 -8.6230 0
M  V30 73 N 11.7337 -11.4071 -7.5012 0
M  V30 74 C 11.4165 -9.9092 -11.5822 0
M  V30 75 C 12.3797 -8.8132 -11.3214 0
M  V30 76 N 11.7567 -7.4897 -11.3955 0
M  V30 77 H 7.4647 -10.0089 -10.6688 0
M  V30 78 H 8.0557 -11.5888 -9.9181 0
M  V30 79 H 9.7572 -11.8633 -11.5745 0
M  V30 80 H 9.3044 -10.3936 -12.4728 0
M  V30 81 H 9.6601 -10.9856 -8.9329 0
M  V30 82 H 10.7944 -11.9122 -9.9673 0
M  V30 83 H 12.6425 -10.6094 -9.1406 0
M  V30 84 H 11.5269 -9.4616 -8.1850 0
M  V30 85 H 11.0825 -9.8246 -12.6613 0
M  V30 86 H 12.0275 -10.8717 -11.5596 0
M  V30 87 H 12.9784 -8.8160 -10.4359 0
M  V30 88 H 13.1096 -8.8370 -12.1897 0
M  V30 89 N -7.1515 11.7452 11.7452 0
M  V30 90 C -7.9932 10.8239 10.9567 0
M  V30 91 C -9.3169 11.4778 10.8428 0
M  V30 92 N -10.3061 10.6993 10.0535 0
M  V30 93 C -10.5932 9.5423 10.8830 0
M  V30 94 C -11.6581 8.6230 10.4376 0
M  V30 95 N -11.7337 7.5012 11.4071 0
M  V30 96 C -11.4165 11.5822 9.9092 0
M  V30 97 C -12.3797 11.3214 8.8132 0
M  V30 98 N -11.7567 11.3955 7.4897 0
M  V30 99 H -7.4647 10.6688 10.0089 0
M  V30 100 H -8.0557 9.9181 11.5888 0
M  V30 101 H -9.7572 11.5745 11.8633 0
M  V30 102 H -9.3044 12.4728 10.3936 0
M  V30 103 H -9.6601 8.9329 10.9856 0
M  V30 104 H -10.7944 9.9673 11.9122 0
M  V30 105 H -12.6425 9.1406 10.6094 0
M  V30 106 H -11.5269 8.1850 9.4616 0
M  V30 107 H -11.0825 12.6613 9.8246 0
M  V30 108 H -12.0275 11.5596 10.8717 0
M  V30 109 H -12.9784 10.4359 8.8160 0
M  V30 110 H -13.1096 12.1897 8.8370 0
M  V30 111 N -11.7452 -7.1515 11.7452 0
M  V30 112 C -10.8239 -7.9932 10.9567 0
M  V30 113 C -11.4778 -9.3169 10.8428 0
M  V30 114 N -10.6993 -10.3061 10.0535 0
M  V30 115 C -9.5423 -10.5932 10.8830 0
M  V30 116 C -8.6230 -11.6581 10.4376 0
M  V30 117 N -7.5012 -11.7337 11.4071 0
M  V30 118 C -11.5822 -11.4165 9.9092 0
M  V30 119 C -11.3214 -12.3797 8.8132 0
M  V30 120 N -11.3955 -11.7567 7.4897 0
M  V30 121 H -10.6688 -7.4647 10.0089 0
M  V30 122 H -9.9181 -8.0557 11.5888 0
M  V30 123 H -11.5745 -9.7572 11.8633 0
M  V30 124 H -12.4728 -9.3044 10.3936 0
M  V30 125 H -8.9329 -9.6601 10.9856 0
M  V30 126 H -9.9673 -10.7944 11.9122 0
M  V30 127 H -9.1406 -12.6425 10.6094 0
M  V30 128 H -8.1850 -11.5269 9.4616 0
M  V30 129 H -12.6613 -11.0825 9.8246 0
M  V30 130 H -11.5596 -12.0275 10.8717 0
M  V30 131 H -10.4359 -12.9784 8.8160 0
M  V30 132 H -12.1897 -13.1096 8.8370 0
M  V30 133 N 7.1515 11.7452 11.7452 0
M  V30 134 C 7.9932 10.9567 10.8239 0
M  V30 135 C 9.3169 10.8428 11.4778 0
M  V30 136 N 10.3061 10.0535 10.6993 0
M  V30 137 C 10.5932 10.8830 9.5423 0
M  V30 138 C 11.6581 10.4376 8.6230 0
M  V30 139 N 11.7337 11.4071 7.5012 0
M  V30 140 C 11.4165 9.9092 11.5822 0
M  V30 141 C 12.3797 8.8132 11.3214 0
M  V30 142 N 11.7567 7.4897 11.3955 0
M  V30 143 H 7.4647 10.0089 10.6688 0
M  V30 144 H 8.0557 11.5888 9.9181 0
M  V30 145 H 9.7572 11.8633 11.5745 0
M  V30 146 H 9.3044 10.3936 12.4728 0
M  V30 147 H 9.6601 10.9856 8.9329 0
M  V30 148 H 10.7944 11.9122 9.9673 0
M  V30 149 H 12.6425 10.6094 9.1406 0
M  V30 150 H 11.5269 9.4616 8.1850 0
M  V30 151 H 11.0825 9.8246 12.6613 0
M  V30 152 H 12.0275 10.8717 11.5596 0
M  V30 153 H 12.9784 8.8160 10.4359 0
M  V30 154 H 13.1096 8.8370 12.1897 0
M  V30 155 N 7.1515 -11.7452 11.7452 0
M  V30 156 C 7.9932 -10.8239 10.9567 0
M  V30 157 C 9.3169 -11.4778 10.8428 0
M  V30 158 N 10.3061 -10.6993 10.0535 0
M  V30 159 C 10.5932 -9.5423 10.8830 0
M  V30 160 C 11.6581 -8.6230 10.4376 0
M  V30 161 N 11.7337 -7.5012 11.4071 0
M  V30 162 C 11.4165 -11.5822 9.9092 0
M  V30 163 C 12.3797 -11.3214 8.8132 0
M  V30 164 N 11.7567 -11.3955 7.4897 0
M  V30 165 H 7.4647 -10.6688 10.0089 0
M  V30 166 H 8.0557 -9.9181 11.5888 0
M  V30 167 H 9.7572 -11.5745 11.8633 0
M  V30 168 H 9.3044 -12.4728 10.3936 0
M  V30 169 H 9.6601 -8.9329 10.9856 0
M  V30 170 H 10.7944 -9.9673 11.9122 0
M  V30 171 H 12.6425 -9.1406 10.6094 0
M  V30 172 H 11.5269 -8.1850 9.4616 0
M  V30 173 H 11.0825 -12.6613 9.8246 0
M  V30 174 H 12.0275 -11.5596 10.8717 0
M  V30 175 H 12.9784 -10.4359 8.8160 0
M  V30 176 H 13.1096 -12.1897 8.8370 0
M  V30 177 C -2.4805 11.7452 -11.7452 0
M  V30 178 C -1.2064 12.2405 -12.2404 0
M  V30 179 C -1.2114 13.2130 -13.2130 0
M  V30 180 C -0.0262 13.7100 -13.7101 0
M  V30 181 C 1.1781 13.2328 -13.2328 0
M  V30 182 C 1.2227 12.2481 -12.2480 0
M  V30 183 C 2.4805 11.7452 -11.7452 0
M  V30 184 C 0.0060 11.7901 -11.7901 0
M  V30 185 H -3.3888 12.1539 -12.1539 0
M  V30 186 H -2.1600 13.6074 -13.6075 0
M  V30 187 H -0.0369 14.4609 -14.4610 0
M  V30 188 H 2.1332 13.5854 -13.5854 0
M  V30 189 H 2.4839 10.9914 -10.9914 0
M  V30 190 H -0.0010 11.0276 -11.0275 0
M  V30 191 C -11.7510 2.6495 -11.5704 0
M  V30 192 C -12.2500 1.3755 -12.0618 0
M  V30 193 C -13.2301 1.3805 -13.0268 0
M  V30 194 C -13.7310 0.1953 -13.5199 0
M  V30 195 C -13.2500 -1.0090 -13.0464 0
M  V30 196 C -12.2577 -1.0536 -12.0693 0
M  V30 197 C -11.7510 -2.3114 -11.5704 0
M  V30 198 C -11.7962 0.1631 -11.6149 0
M  V30 199 H -12.1628 3.5579 -11.9759 0
M  V30 200 H -13.6276 2.3291 -13.4181 0
M  V30 201 H -14.4877 0.2060 -14.2650 0
M  V30 202 H -13.6054 -1.9641 -13.3963 0
M  V30 203 H -10.9913 -2.3149 -10.8225 0
M  V30 204 H -11.0278 0.1700 -10.8583 0
M  V30 205 C -2.6495 -11.7510 -11.5704 0
M  V30 206 C -1.3755 -12.2500 -12.0618 0
M  V30 207 C -1.3805 -13.2301 -13.0268 0
M  V30 208 C -0.1953 -13.7310 -13.5199 0
M  V30 209 C 1.0090 -13.2500 -13.0464 0
M  V30 210 C 1.0536 -12.2577 -12.0693 0
M  V30 211 C 2.3114 -11.7510 -11.5704 0
M  V30 212 C -0.1631 -11.7962 -11.6149 0
M  V30 213 H -3.5579 -12.1628 -11.9759 0
M  V30 214 H -2.3291 -13.6276 -13.4181 0
M  V30 215 H -0.2060 -14.4877 -14.2650 0
M  V30 216 H 1.9641 -13.6054 -13.3963 0
M  V30 217 H 2.3149 -10.9913 -10.8225 0
M  V30 218 H -0.1700 -11.0278 -10.8583 0
M  V30 219 C 11.7452 2.4862 -11.4013 0
M  V30 220 C 12.2478 1.2122 -11.8891 0
M  V30 221 C 13.2346 1.2171 -12.8471 0
M  V30 222 C 13.7390 0.0320 -13.3368 0
M  V30 223 C 13.2547 -1.1723 -12.8666 0
M  V30 224 C 12.2555 -1.2169 -11.8966 0
M  V30 225 C 11.7452 -2.4747 -11.4013 0
M  V30 226 C 11.7907 -0.0002 -11.4455 0
M  V30 227 H 12.1599 3.3946 -11.8039 0
M  V30 228 H 13.6349 2.1658 -13.2357 0
M  V30 229 H 14.5010 0.0427 -14.0764 0
M  V30 230 H 13.6125 -2.1274 -13.2140 0
M  V30 231 H 10.9803 -2.4782 -10.6587 0
M  V30 232 H 11.0170 0.0067 -10.6944 0
M  V30 233 C -2.4805 11.7452 11.7452 0
M  V30 234 C -1.2064 12.2404 12.2405 0
M  V30 235 C -1.2114 13.2130 13.2130 0
M  V30 236 C -0.0262 13.7101 13.7100 0
M  V30 237 C 1.1781 13.2328 13.2328 0
M  V30 238 C 1.2227 12.2480 12.2481 0
M  V30 239 C 2.4805 11.7452 11.7452 0
M  V30 240 C 0.0060 11.7901 11.7901 0
M  V30 241 H -3.3888 12.1539 12.1539 0
M  V30 242 H -2.1600 13.6075 13.6074 0
M  V30 243 H -0.0369 14.4610 14.4609 0
M  V30 244 H 2.1332 13.5854 13.5854 0
M  V30 245 H 2.4839 10.9914 10.9914 0
M  V30 246 H -0.0010 11.0275 11.0276 0
M  V30 247 C -11.7395 2.6553 11.5761 0
M  V30 248 C -12.2382 1.3813 12.0679 0
M  V30 249 C -13.2175 1.3862 13.0336 0
M  V30 250 C -13.7180 0.2010 13.5272 0
M  V30 251 C -13.2374 -1.0032 13.0533 0
M  V30 252 C -12.2458 -1.0479 12.0754 0
M  V30 253 C -11.7395 -2.3056 11.5761 0
M  V30 254 C -11.7846 0.1689 11.6207 0
M  V30 255 H -12.1510 3.5636 11.9819 0
M  V30 256 H -13.6147 2.3348 13.4253 0
M  V30 257 H -14.4741 0.2118 14.2728 0
M  V30 258 H -13.5925 -1.9583 13.4034 0
M  V30 259 H -10.9804 -2.3091 10.8276 0
M  V30 260 H -11.0168 0.1758 10.8635 0
M  V30 261 C -2.6553 -11.7395 11.5761 0
M  V30 262 C -1.3813 -12.2382 12.0679 0
M  V30 263 C -1.3862 -13.2175 13.0336 0
M  V30 264 C -0.2010 -13.7180 13.5272 0
M  V30 265 C 1.0032 -13.2374 13.0533 0
M  V30 266 C 1.0479 -12.2458 12.0754 0
M  V30 267 C 2.3056 -11.7395 11.5761 0
M  V30 268 C -0.1689 -11.7846 11.6207 0
M  V30 269 H -3.5636 -12.1510 11.9819 0
M  V30 270 H -2.3348 -13.6147 13.4253 0
M  V30 271 H -0.2118 -14.4741 14.2728 0
M  V30 272 H 1.9583 -13.5925 13.4034 0
M  V30 273 H 2.3091 -10.9804 10.8276 0
M  V30 274 H -0.1758 -11.0168 10.8635 0
M  V30 275 C 11.7452 2.4747 11.4013 0
M  V30 276 C 12.2477 1.2006 11.8891 0
M  V30 277 C 13.2347 1.2056 12.8471 0
M  V30 278 C 13.7391 0.0204 13.3367 0
M  V30 279 C 13.2547 -1.1838 12.8666 0
M  V30 280 C 12.2555 -1.2285 11.8966 0
M  V30 281 C 11.7452 -2.4862 11.4013 0
M  V30 282 C 11.7907 -0.0117 11.4455 0
M  V30 283 H 12.1599 3.3830 11.8039 0
M  V30 284 H 13.6349 2.1542 13.2357 0
M  V30 285 H 14.5010 0.0312 14.0764 0
M  V30 286 H 13.6126 -2.1389 13.2140 0
M  V30 287 H 10.9803 -2.4897 10.6588 0
M  V30 288 H 11.0169 -0.0048 10.6944 0
M  V30 289 C -11.7452 11.4013 -2.4862 0
M  V30 290 C -12.2478 11.8891 -1.2122 0
M  V30 291 C -13.2346 12.8471 -1.2171 0
M  V30 292 C -13.7390 13.3368 -0.0320 0
M  V30 293 C -13.2547 12.8666 1.1723 0
M  V30 294 C -12.2555 11.8966 1.2169 0
M  V30 295 C -11.7452 11.4013 2.4747 0
M  V30 296 C -11.7907 11.4455 0.0002 0
M  V30 297 H -12.1599 11.8039 -3.3946 0
M  V30 298 H -13.6349 13.2357 -2.1658 0
M  V30 299 H -14.5010 14.0764 -0.0427 0
M  V30 300 H -13.6125 13.2140 2.1274 0
M  V30 301 H -10.9803 10.6587 2.4782 0
M  V30 302 H -11.0170 10.6944 -0.0067 0
M  V30 303 C -11.4013 -11.7452 -2.4862 0
M  V30 304 C -11.8891 -12.2478 -1.2122 0
M  V30 305 C -12.8471 -13.2346 -1.2171 0
M  V30 306 C -13.3368 -13.7390 -0.0320 0
M  V30 307 C -12.8666 -13.2547 1.1723 0
M  V30 308 C -11.8966 -12.2555 1.2169 0
M  V30 309 C -11.4013 -11.7452 2.4747 0
M  V30 310 C -11.4455 -11.7907 0.0002 0
M  V30 311 H -11.8039 -12.1599 -3.3946 0
M  V30 312 H -13.2357 -13.6349 -2.1658 0
M  V30 313 H -14.0764 -14.5010 -0.0427 0
M  V30 314 H -13.2140 -13.6125 2.1274 0
M  V30 315 H -10.6587 -10.9803 2.4782 0
M  V30 316 H -10.6944 -11.0170 -0.0067 0
M  V30 317 C 11.7452 11.4013 -2.4747 0
M  V30 318 C 12.2477 11.8891 -1.2006 0
M  V30 319 C 13.2347 12.8471 -1.2056 0
M  V30 320 C 13.7391 13.3367 -0.0204 0
M  V30 321 C 13.2547 12.8666 1.1838 0
M  V30 322 C 12.2555 11.8966 1.2285 0
M  V30 323 C 11.7452 11.4013 2.4862 0
M  V30 324 C 11.7907 11.4455 0.0117 0
M  V30 325 H 12.1599 11.8039 -3.3830 0
M  V30 326 H 13.6349 13.2357 -2.1542 0
M  V30 327 H 14.5010 14.0764 -0.0312 0
M  V30 328 H 13.6126 13.2140 2.1389 0
M  V30 329 H 10.9803 10.6588 2.4897 0
M  V30 330 H 11.0169 10.6944 0.0048 0
M  V30 331 C 11.7452 -11.4013 -2.4862 0
M  V30 332 C 12.2478 -11.8891 -1.2122 0
M  V30 333 C 13.2346 -12.8471 -1.2171 0
M  V30 334 C 13.7390 -13.3368 -0.0320 0
M  V30 335 C 13.2547 -12.8666 1.1723 0
M  V30 336 C 12.2555 -11.8966 1.2169 0
M  V30 337 C 11.7452 -11.4013 2.4747 0
M  V30 338 C 11.7907 -11.4455 0.0002 0
M  V30 339 H 12.1599 -11.8039 -3.3946 0
M  V30 340 H 13.6349 -13.2357 -2.1658 0
M  V30 341 H 14.5010 -14.0764 -0.0427 0
M  V30 342 H 13.6125 -13.2140 2.1274 0
M  V30 343 H 10.9803 -10.6587 2.4782 0
M  V30 344 H 11.0170 -10.6944 -0.0067 0
M  V30 END ATOM
M  V30 BEGIN BOND
M  V30 1 1 1 2
M  V30 2 1 2 3
M  V30 3 1 3 4
M  V30 4 1 4 5
M  V30 5 1 5 6
M  V30 6 1 6 7
M  V30 7 1 4 8
M  V30 8 1 8 9
M  V30 9 1 9 10
M  V30 10 1 2 11
M  V30 11 1 2 12
M  V30 12 1 3 13
M  V30 13 1 3 14
M  V30 14 1 5 15
M  V30 15 1 5 16
M  V30 16 1 6 17
M  V30 17 1 6 18
M  V30 18 1 8 19
M  V30 19 1 8 20
M  V30 20 1 9 21
M  V30 21 1 9 22
M  V30 22 1 23 24
M  V30 23 1 24 25
M  V30 24 1 25 26
M  V30 25 1 26 27
M  V30 26 1 27 28
M  V30 27 1 28 29
M  V30 28 1 26 30
M  V30 29 1 30 31
M  V30 30 1 31 32
M  V30 31 1 24 33
M  V30 32 1 24 34
M  V30 33 1 25 35
M  V30 34 1 25 36
M  V30 35 1 27 37
M  V30 36 1 27 38
M  V30 37 1 28 39
M  V30 38 1 28 40
M  V30 39 1 30 41
M  V30 40 1 30 42
M  V30 41 1 31 43
M  V30 42 1 31 44
M  V30 43 1 45 46
M  V30 44 1 46 47
M  V30 45 1 47 48
M  V30 46 1 48 49
M  V30 47 1 49 50
M  V30 48 1 50 51
M  V30 49 1 48 52
M  V30 50 1 52 53
M  V30 51 1 53 54
M  V30 52 1 46 55
M  V30 53 1 46 56
M  V30 54 1 47 57
M  V30 55 1 47 58
M  V30 56 1 49 59
M  V30 57 1 49 60
M  V30 58 1 50 61
M  V30 59 1 50 62
M  V30 60 1 52 63
M  V30 61 1 52 64
M  V30 62 1 53 65
M  V30 63 1 53 66
M  V30 64 1 67 68
M  V30 65 1 68 69
M  V30 66 1 69 70
M  V30 67 1 70 71
M  V30 68 1 71 72
M  V30 69 1 72 73
M  V30 70 1 70 74
M  V30 71 1 74 75
M  V30 72 1 75 76
M  V30 73 1 68 77
M  V30 74 1 68 78
M  V30 75 1 69 79
M  V30 76 1 69 80
M  V30 77 1 71 81
M  V30 78 1 71 82
M  V30 79 1 72 83
M  V30 80 1 72 84
M  V30 81 1 74 85
M  V30 82 1 74 86
M  V30 83 1 75 87
M  V30 84 1 75 88
M  V30 85 1 89 90
M  V30 86 1 90 91
M  V30 87 1 91 92
M  V30 88 1 92 93
M  V30 89 1 93 94
M  V30 90 1 94 95
M  V30 91 1 92 96
M  V30 92 1 96 97
M  V30 93 1 97 98
M  V30 94 1 90 99
M  V30 95 1 90 100
M  V30 96 1 91 101
M  V30 97 1 91 102
M  V30 98 1 93 103
M  V30 99 1 93 104
M  V30 100 1 94 105
M  V30 101 1 94 106
M  V30 102 1 96 107
M  V30 103 1 96 108
M  V30 104 1 97 109
M  V30 105 1 97 110
M  V30 106 1 111 112
M  V30 107 1 112 113
M  V30 108 1 113 114
M  V30 109 1 114 115
M  V30 110 1 115 116
M  V30 111 1 116 117
M  V30 112 1 114 118
M  V30 113 1 118 119
M  V30 114 1 119 120
M  V30 115 1 112 121
M  V30 116 1 112 122
M  V30 117 1 113 123
M  V30 118 1 113 124
M  V30 119 1 115 125
M  V30 120 1 115 126
M  V30 121 1 116 127
M  V30 122 1 116 128
M  V30 123 1 118 129
M  V30 124 1 118 130
M  V30 125 1 119 131
M  V30 126 1 119 132
M  V30 127 1 133 134
M  V30 128 1 134 135
M  V30 129 1 135 136
M  V30 130 1 136 137
M  V30 131 1 137 138
M  V30 132 1 138 139
M  V30 133 1 136 140
M  V30 134 1 140 141
M  V30 135 1 141 142
M  V30 136 1 134 143
M  V30 137 1 134 144
M  V30 138 1 135 145
M  V30 139 1 135 146
M  V30 140 1 137 147
M  V30 141 1 137 148
M  V30 142 1 138 149
M  V30 143 1 138 150
M  V30 144 1 140 151
M  V30 145 1 140 152
M  V30 146 1 141 153
M  V30 147 1 141 154
M  V30 148 1 155 156
M  V30 149 1 156 157
M  V30 150 1 157 158
M  V30 151 1 158 159
M  V30 152 1 159 160
M  V30 153 1 160 161
M  V30 154 1 158 162
M  V30 155 1 162 163
M  V30 156 1 163 164
M  V30 157 1 156 165
M  V30 158 1 156 166
M  V30 159 1 157 167
M  V30 160 1 157 168
M  V30 161 1 159 169
M  V30 162 1 159 170
M  V30 163 1 160 171
M  V30 164 1 160 172
M  V30 165 1 162 173
M  V30 166 1 162 174
M  V30 167 1 163 175
M  V30 168 1 163 176
M  V30 169 1 177 178
M  V30 170 2 178 179
M  V30 171 1 179 180
M  V30 172 2 180 181
M  V30 173 1 181 182
M  V30 174 1 182 183
M  V30 175 2 182 184
M  V30 176 1 184 178
M  V30 177 1 177 185
M  V30 178 1 179 186
M  V30 179 1 180 187
M  V30 180 1 181 188
M  V30 181 1 183 189
M  V30 182 1 184 190
M  V30 183 1 191 192
M  V30 184 2 192 193
M  V30 185 1 193 194
M  V30 186 2 194 195
M  V30 187 1 195 196
M  V30 188 1 196 197
M  V30 189 2 196 198
M  V30 190 1 198 192
M  V30 191 1 191 199
M  V30 192 1 193 200
M  V30 193 1 194 201
M  V30 194 1 195 202
M  V30 195 1 197 203
M  V30 196 1 198 204
M  V30 197 1 205 206
M  V30 198 2 206 207
M  V30 199 1 207 208
M  V30 200 2 208 209
M  V30 201 1 209 210
M  V30 202 1 210 211
M  V30 203 2 210 212
M  V30 204 1 212 206
M  V30 205 1 205 213
M  V30 206 1 207 214
M  V30 207 1 208 215
M  V30 208 1 209 216
M  V30 209 1 211 217
M  V30 210 1 212 218
M  V30 211 1 219 220
M  V30 212 2 220 221
M  V30 213 1 221 222
M  V30 214 2 222 223
M  V30 215 1 223 224
M  V30 216 1 224 225
M  V30 217 2 224 226
M  V30 218 1 226 220
M  V30 219 1 219 227
M  V30 220 1 221 228
M  V30 221 1 222 229
M  V30 222 1 223 230
M  V30 223 1 225 231
M  V30 224 1 226 232
M  V30 225 1 233 234
M  V30 226 2 234 235
M  V30 227 1 235 236
M  V30 228 2 236 237
M  V30 229 1 237 238
M  V30 230 1 238 239
M  V30 231 2 238 240
M  V30 232 1 240 234
M  V30 233 1 233 241
M  V30 234 1 235 242
M  V30 235 1 236 243
M  V30 236 1 237 244
M  V30 237 1 239 245
M  V30 238 1 240 246
M  V30 239 1 247 248
M  V30 240 2 248 249
M  V30 241 1 249 250
M  V30 242 2 250 251
M  V30 243 1 251 252
M  V30 244 1 252 253
M  V30 245 2 252 254
M  V30 246 1 254 248
M  V30 247 1 247 255
M  V30 248 1 249 256
M  V30 249 1 250 257
M  V30 250 1 251 258
M  V30 251 1 253 259
M  V30 252 1 254 260
M  V30 253 1 261 262
M  V30 254 2 262 263
M  V30 255 1 263 264
M  V30 256 2 264 265
M  V30 257 1 265 266
M  V30 258 1 266 267
M  V30 259 2 266 268
M  V30 260 1 268 262
M  V30 261 1 261 269
M  V30 262 1 263 270
M  V30 263 1 264 271
M  V30 264 1 265 272
M  V30 265 1 267 273
M  V30 266 1 268 274
M  V30 267 1 275 276
M  V30 268 2 276 277
M  V30 269 1 277 278
M  V30 270 2 278 279
M  V30 271 1 279 280
M  V30 272 1 280 281
M  V30 273 2 280 282
M  V30 274 1 282 276
M  V30 275 1 275 283
M  V30 276 1 277 284
M  V30 277 1 278 285
M  V30 278 1 279 286
M  V30 279 1 281 287
M  V30 280 1 282 288
M  V30 281 1 289 290
M  V30 282 2 290 291
M  V30 283 1 291 292
M  V30 284 2 292 293
M  V30 285 1 293 294
M  V30 286 1 294 295
M  V30 287 2 294 296
M  V30 288 1 296 290
M  V30 289 1 289 297
M  V30 290 1 291 298
M  V30 291 1 292 299
M  V30 292 1 293 300
M  V30 293 1 295 301
M  V30 294 1 296 302
M  V30 295 1 303 304
M  V30 296 2 304 305
M  V30 297 1 305 306
M  V30 298 2 306 307
M  V30 299 1 307 308
M  V30 300 1 308 309
M  V30 301 2 308 310
M  V30 302 1 310 304
M  V30 303 1 303 311
M  V30 304 1 305 312
M  V30 305 1 306 313
M  V30 306 1 307 314
M  V30 307 1 309 315
M  V30 308 1 310 316
M  V30 309 1 317 318
M  V30 310 2 318 319
M  V30 311 1 319 320
M  V30 312 2 320 321
M  V30 313 1 321 322
M  V30 314 1 322 323
M  V30 315 2 322 324
M  V30 316 1 324 318
M  V30 317 1 317 325
M  V30 318 1 319 326
M  V30 319 1 320 327
M  V30 320 1 321 328
M  V30 321 1 323 329
M  V30 322 1 324 330
M  V30 323 1 331 332
M  V30 324 2 332 333
M  V30 325 1 333 334
M  V30 326 2 334 335
M  V30 327 1 335 336
M  V30 328 1 336 337
M  V30 329 2 336 338
M  V30 330 1 338 332
M  V30 331 1 331 339
M  V30 332 1 333 340
M  V30 333 1 334 341
M  V30 334 1 335 342
M  V30 335 1 337 343
M  V30 336 1 338 344
M  V30 337 2 1 177
M  V30 338 2 45 183
M  V30 339 2 10 191
M  V30 340 2 23 197
M  V30 341 2 32 205
M  V30 342 2 67 211
M  V30 343 2 51 219
M  V30 344 2 76 225
M  V30 345 2 89 233
M  V30 346 2 133 239
M  V30 347 2 95 247
M  V30 348 2 111 253
M  V30 349 2 117 261
M  V30 350 2 155 267
M  V30 351 2 142 275
M  V30 352 2 161 281
M  V30 353 2 7 289
M  V30 354 2 98 295
M  V30 355 2 29 303
M  V30 356 2 120 309
M  V30 357 2 54 317
M  V30 358 2 139 323
M  V30 359 2 73 331
M  V30 360 2 164 337
M  V30 END BOND
M  V30 END CTAB
M  END

$$$$
