
     RDKit          3D

  0  0  0  0  0  0  0  0  0  0999 V3000
M  V30 BEGIN CTAB
M  V30 COUNTS 172 186 0 0 0
M  V30 BEGIN ATOM
M  V30 1 N -3.2482 -1.8754 13.1296 0
M  V30 2 C -2.0955 -1.1014 12.6284 0
M  V30 3 C -1.0790 -1.1415 13.7044 0
M  V30 4 N 0.1786 -0.4241 13.3703 0
M  V30 5 C -0.2049 0.9763 13.3470 0
M  V30 6 C 0.8630 1.9799 13.1739 0
M  V30 7 N 0.2310 3.3225 13.1296 0
M  V30 8 C 1.0658 -0.7507 14.4378 0
M  V30 9 C 2.5219 -0.5919 14.2106 0
M  V30 10 N 3.0173 -1.4471 13.1296 0
M  V30 11 H -1.7990 -1.5775 11.6865 0
M  V30 12 H -2.4983 -0.0782 12.5064 0
M  V30 13 H -1.4892 -0.6240 14.6036 0
M  V30 14 H -0.7702 -2.1423 14.0123 0
M  V30 15 H -0.9373 1.1349 12.5156 0
M  V30 16 H -0.7904 1.1317 14.3027 0
M  V30 17 H 1.4376 2.0293 14.1403 0
M  V30 18 H 1.4604 1.8855 12.2818 0
M  V30 19 H 0.8895 -1.8026 14.8191 0
M  V30 20 H 0.8173 -0.0898 15.3332 0
M  V30 21 H 2.9432 0.3766 14.0466 0
M  V30 22 H 3.0212 -0.9932 15.1470 0
M  V30 23 N -11.8030 -6.8145 -0.8403 0
M  V30 24 C -10.9469 -6.4287 -1.9793 0
M  V30 25 C -11.8486 -6.3223 -3.1490 0
M  V30 26 N -11.1617 -5.9170 -4.4026 0
M  V30 27 C -10.3340 -7.0610 -4.7419 0
M  V30 28 C -9.6133 -7.0319 -6.0293 0
M  V30 29 N -8.8020 -8.2710 -6.1313 0
M  V30 30 C -12.2218 -5.6902 -5.3289 0
M  V30 31 C -11.9446 -4.8483 -6.5170 0
M  V30 32 N -11.5557 -3.4826 -6.1580 0
M  V30 33 H -10.4528 -5.4961 -1.6830 0
M  V30 34 H -10.2566 -7.2858 -2.0921 0
M  V30 35 H -12.2840 -7.3280 -3.3578 0
M  V30 36 H -12.6779 -5.6219 -3.0320 0
M  V30 37 H -9.5637 -7.1977 -3.9416 0
M  V30 38 H -11.0247 -7.9531 -4.6557 0
M  V30 39 H -10.3739 -7.1886 -6.8438 0
M  V30 40 H -8.9394 -6.2035 -6.1752 0
M  V30 41 H -13.1405 -5.2705 -4.8162 0
M  V30 42 H -12.5714 -6.6964 -5.7360 0
M  V30 43 H -11.2516 -5.1735 -7.2629 0
M  V30 44 H -12.9409 -4.7339 -7.0476 0
M  V30 45 N 11.8030 -6.8145 -0.8403 0
M  V30 46 C 11.0408 -6.2660 -1.9793 0
M  V30 47 C 11.3995 -7.1001 -3.1490 0
M  V30 48 N 10.7051 -6.7078 -4.4026 0
M  V30 49 C 11.2820 -5.4190 -4.7419 0
M  V30 50 C 10.8964 -4.8095 -6.0293 0
M  V30 51 N 11.5639 -3.4873 -6.1313 0
M  V30 52 C 11.0388 -7.7393 -5.3289 0
M  V30 53 C 10.1711 -7.9202 -6.5170 0
M  V30 54 N 8.7939 -8.2663 -6.1580 0
M  V30 55 H 9.9861 -6.3043 -1.6830 0
M  V30 56 H 11.4380 -5.2396 -2.0921 0
M  V30 57 H 12.4882 -6.9743 -3.3578 0
M  V30 58 H 11.2076 -8.1684 -3.0320 0
M  V30 59 H 11.0152 -4.6836 -3.9416 0
M  V30 60 H 12.4000 -5.5711 -4.6557 0
M  V30 61 H 11.4125 -5.3897 -6.8438 0
M  V30 62 H 9.8421 -4.6400 -6.1752 0
M  V30 63 H 11.1347 -8.7447 -4.8162 0
M  V30 64 H 12.0850 -7.5390 -5.7360 0
M  V30 65 H 10.1061 -7.1574 -7.2629 0
M  V30 66 H 10.5702 -8.8402 -7.0476 0
M  V30 67 N 0.0000 13.6289 -0.8403 0
M  V30 68 C -0.0939 12.6947 -1.9793 0
M  V30 69 C 0.4491 13.4223 -3.1490 0
M  V30 70 N 0.4566 12.6248 -4.4026 0
M  V30 71 C -0.9480 12.4801 -4.7419 0
M  V30 72 C -1.2831 11.8413 -6.0293 0
M  V30 73 N -2.7619 11.7583 -6.1313 0
M  V30 74 C 1.1830 13.4295 -5.3289 0
M  V30 75 C 1.7735 12.7685 -6.5170 0
M  V30 76 N 2.7619 11.7488 -6.1580 0
M  V30 77 H 0.4666 11.8004 -1.6830 0
M  V30 78 H -1.1814 12.5254 -2.0921 0
M  V30 79 H -0.2042 14.3023 -3.3578 0
M  V30 80 H 1.4702 13.7903 -3.0320 0
M  V30 81 H -1.4515 11.8813 -3.9416 0
M  V30 82 H -1.3752 13.5243 -4.6557 0
M  V30 83 H -1.0386 12.5784 -6.8438 0
M  V30 84 H -0.9027 10.8435 -6.1752 0
M  V30 85 H 2.0058 14.0153 -4.8162 0
M  V30 86 H 0.4864 14.2354 -5.7360 0
M  V30 87 H 1.1455 12.3309 -7.2629 0
M  V30 88 H 2.3708 13.5741 -7.0476 0
M  V30 89 C -5.5910 -3.2279 9.3039 0
M  V30 90 C -6.3378 -3.6588 8.1488 0
M  V30 91 C -6.1053 -3.5325 6.8264 0
M  V30 92 C -7.0179 -4.0563 5.9951 0
M  V30 93 S -7.1622 -4.1473 4.1115 0
M  V30 94 C -8.7245 -5.0373 4.1439 0
M  V30 95 C -9.4603 -5.4619 2.9854 0
M  V30 96 C -8.9550 -5.1625 5.4651 0
M  V30 97 C -8.0311 -4.6323 6.2879 0
M  V30 98 S -7.8856 -4.5406 8.1756 0
M  V30 99 H -4.6762 -2.7074 9.1707 0
M  V30 100 H -5.1849 -3.0097 6.4802 0
M  V30 101 H -10.3797 -5.9853 3.0975 0
M  V30 102 H -9.8768 -5.6861 5.8125 0
M  V30 103 C 5.4755 -3.0138 9.3039 0
M  V30 104 C 6.2223 -3.4448 8.1488 0
M  V30 105 C 5.9906 -3.3169 6.8264 0
M  V30 106 C 6.9029 -3.8413 5.9951 0
M  V30 107 S 7.0480 -3.9308 4.1115 0
M  V30 108 C 8.6091 -4.8231 4.1439 0
M  V30 109 C 9.3448 -5.2478 2.9854 0
M  V30 110 C 8.8386 -4.9498 5.4651 0
M  V30 111 C 7.9152 -4.4190 6.2879 0
M  V30 112 S 7.7688 -4.3288 8.1756 0
M  V30 113 H 4.5615 -2.4918 9.1706 0
M  V30 114 H 5.0712 -2.7925 6.4802 0
M  V30 115 H 10.2635 -5.7726 3.0976 0
M  V30 116 H 9.7595 -5.4751 5.8125 0
M  V30 117 C 0.1155 6.2417 9.3039 0
M  V30 118 C 0.1161 7.1040 8.1488 0
M  V30 119 C 0.0985 6.8396 6.8265 0
M  V30 120 C 0.1053 7.8918 5.9952 0
M  V30 121 S 0.0883 8.0623 4.1116 0
M  V30 122 C 0.1150 9.8602 4.1439 0
M  V30 123 C 0.1155 10.7097 2.9854 0
M  V30 124 C 0.1326 10.1222 5.4651 0
M  V30 125 C 0.1255 9.0571 6.2879 0
M  V30 126 S 0.1426 8.8851 8.1755 0
M  V30 127 H 0.0986 5.1893 9.1707 0
M  V30 128 H 0.0793 5.7812 6.4804 0
M  V30 129 H 0.1322 11.7675 3.0975 0
M  V30 130 H 0.1518 11.1822 5.8124 0
M  V30 131 C -3.8734 -8.2686 -6.1446 0
M  V30 132 C -2.4325 -8.2983 -6.1670 0
M  V30 133 C -1.5055 -7.5162 -5.5773 0
M  V30 134 C -0.2192 -7.8190 -5.8056 0
M  V30 135 S 1.4172 -7.0617 -5.2346 0
M  V30 136 C 2.4289 -8.2489 -6.1298 0
M  V30 137 C 3.8653 -8.2686 -6.1446 0
M  V30 138 C 1.5014 -9.0289 -6.7179 0
M  V30 139 C 0.2147 -8.7138 -6.4803 0
M  V30 140 S -1.4259 -9.4719 -7.0520 0
M  V30 141 H -4.3722 -7.5210 -5.5809 0
M  V30 142 H -1.8339 -6.6665 -4.9366 0
M  V30 143 H 4.3845 -9.0101 -6.7037 0
M  V30 144 H 1.8299 -9.8802 -7.3598 0
M  V30 145 C -9.0935 0.7869 -6.1446 0
M  V30 146 C -8.3989 2.0498 -6.1666 0
M  V30 147 C -7.2511 2.4575 -5.5878 0
M  V30 148 C -6.8729 3.7244 -5.8119 0
M  V30 149 S -5.3921 4.7589 -5.2515 0
M  V30 150 C -5.9250 6.2349 -6.1300 0
M  V30 151 C -5.2241 7.4888 -6.1446 0
M  V30 152 C -7.0713 5.8257 -6.7072 0
M  V30 153 C -7.4389 4.5521 -6.4740 0
M  V30 154 S -8.9227 3.5144 -7.0351 0
M  V30 155 H -8.6887 -0.0228 -5.5914 0
M  V30 156 H -6.6717 1.7437 -4.9591 0
M  V30 157 H -5.6134 8.3130 -6.6933 0
M  V30 158 H -7.6521 6.5403 -7.3372 0
M  V30 159 C 9.0975 0.7798 -6.1446 0
M  V30 160 C 8.4027 2.0426 -6.1670 0
M  V30 161 C 7.2619 2.4543 -5.5773 0
M  V30 162 C 6.8810 3.7197 -5.8056 0
M  V30 163 S 5.4070 4.7582 -5.2346 0
M  V30 164 C 5.9293 6.2279 -6.1298 0
M  V30 165 C 5.2282 7.4817 -6.1446 0
M  V30 166 C 7.0685 5.8147 -6.7179 0
M  V30 167 C 7.4390 4.5428 -6.4803 0
M  V30 168 S 8.9159 3.5011 -7.0520 0
M  V30 169 H 8.6995 -0.0260 -5.5809 0
M  V30 170 H 6.6903 1.7450 -4.9366 0
M  V30 171 H 5.6107 8.3021 -6.7037 0
M  V30 172 H 7.6416 6.5248 -7.3598 0
M  V30 END ATOM
M  V30 BEGIN BOND
M  V30 1 1 1 2
M  V30 2 1 2 3
M  V30 3 1 3 4
M  V30 4 1 4 5
M  V30 5 1 5 6
M  V30 6 1 6 7
M  V30 7 1 4 8
M  V30 8 1 8 9
M  V30 9 1 9 10
M  V30 10 1 2 11
M  V30 11 1 2 12
M  V30 12 1 3 13
M  V30 13 1 3 14
M  V30 14 1 5 15
M  V30 15 1 5 16
M  V30 16 1 6 17
M  V30 17 1 6 18
M  V30 18 1 8 19
M  V30 19 1 8 20
M  V30 20 1 9 21
M  V30 21 1 9 22
M  V30 22 1 23 24
M  V30 23 1 24 25
M  V30 24 1 25 26
M  V30 25 1 26 27
M  V30 26 1 27 28
M  V30 27 1 28 29
M  V30 28 1 26 30
M  V30 29 1 30 31
M  V30 30 1 31 32
M  V30 31 1 24 33
M  V30 32 1 24 34
M  V30 33 1 25 35
M  V30 34 1 25 36
M  V30 35 1 27 37
M  V30 36 1 27 38
M  V30 37 1 28 39
M  V30 38 1 28 40
M  V30 39 1 30 41
M  V30 40 1 30 42
M  V30 41 1 31 43
M  V30 42 1 31 44
M  V30 43 1 45 46
M  V30 44 1 46 47
M  V30 45 1 47 48
M  V30 46 1 48 49
M  V30 47 1 49 50
M  V30 48 1 50 51
M  V30 49 1 48 52
M  V30 50 1 52 53
M  V30 51 1 53 54
M  V30 52 1 46 55
M  V30 53 1 46 56
M  V30 54 1 47 57
M  V30 55 1 47 58
M  V30 56 1 49 59
M  V30 57 1 49 60
M  V30 58 1 50 61
M  V30 59 1 50 62
M  V30 60 1 52 63
M  V30 61 1 52 64
M  V30 62 1 53 65
M  V30 63 1 53 66
M  V30 64 1 67 68
M  V30 65 1 68 69
M  V30 66 1 69 70
M  V30 67 1 70 71
M  V30 68 1 71 72
M  V30 69 1 72 73
M  V30 70 1 70 74
M  V30 71 1 74 75
M  V30 72 1 75 76
M  V30 73 1 68 77
M  V30 74 1 68 78
M  V30 75 1 69 79
M  V30 76 1 69 80
M  V30 77 1 71 81
M  V30 78 1 71 82
M  V30 79 1 72 83
M  V30 80 1 72 84
M  V30 81 1 74 85
M  V30 82 1 74 86
M  V30 83 1 75 87
M  V30 84 1 75 88
M  V30 85 1 89 90
M  V30 86 2 90 91
M  V30 87 1 91 92
M  V30 88 1 92 93
M  V30 89 1 93 94
M  V30 90 1 94 95
M  V30 91 2 94 96
M  V30 92 1 96 97
M  V30 93 1 97 98
M  V30 94 1 98 90
M  V30 95 2 97 92
M  V30 96 1 89 99
M  V30 97 1 91 100
M  V30 98 1 95 101
M  V30 99 1 96 102
M  V30 100 1 103 104
M  V30 101 2 104 105
M  V30 102 1 105 106
M  V30 103 1 106 107
M  V30 104 1 107 108
M  V30 105 1 108 109
M  V30 106 2 108 110
M  V30 107 1 110 111
M  V30 108 1 111 112
M  V30 109 1 112 104
M  V30 110 2 111 106
M  V30 111 1 103 113
M  V30 112 1 105 114
M  V30 113 1 109 115
M  V30 114 1 110 116
M  V30 115 1 117 118
M  V30 116 2 118 119
M  V30 117 1 119 120
M  V30 118 1 120 121
M  V30 119 1 121 122
M  V30 120 1 122 123
M  V30 121 2 122 124
M  V30 122 1 124 125
M  V30 123 1 125 126
M  V30 124 1 126 118
M  V30 125 2 125 120
M  V30 126 1 117 127
M  V30 127 1 119 128
M  V30 128 1 123 129
M  V30 129 1 124 130
M  V30 130 1 131 132
M  V30 131 2 132 133
M  V30 132 1 133 134
M  V30 133 1 134 135
M  V30 134 1 135 136
M  V30 135 1 136 137
M  V30 136 2 136 138
M  V30 137 1 138 139
M  V30 138 1 139 140
M  V30 139 1 140 132
M  V30 140 2 139 134
M  V30 141 1 131 141
M  V30 142 1 133 142
M  V30 143 1 137 143
M  V30 144 1 138 144
M  V30 145 1 145 146
M  V30 146 2 146 147
M  V30 147 1 147 148
M  V30 148 1 148 149
M  V30 149 1 149 150
M  V30 150 1 150 151
M  V30 151 2 150 152
M  V30 152 1 152 153
M  V30 153 1 153 154
M  V30 154 1 154 146
M  V30 155 2 153 148
M  V30 156 1 145 155
M  V30 157 1 147 156
M  V30 158 1 151 157
M  V30 159 1 152 158
M  V30 160 1 159 160
M  V30 161 2 160 161
M  V30 162 1 161 162
M  V30 163 1 162 163
M  V30 164 1 163 164
M  V30 165 1 164 165
M  V30 166 2 164 166
M  V30 167 1 166 167
M  V30 168 1 167 168
M  V30 169 1 168 160
M  V30 170 2 167 162
M  V30 171 1 159 169
M  V30 172 1 161 170
M  V30 173 1 165 171
M  V30 174 1 166 172
M  V30 175 2 1 89
M  V30 176 2 23 95
M  V30 177 2 10 103
M  V30 178 2 45 109
M  V30 179 2 7 117
M  V30 180 2 67 123
M  V30 181 2 29 131
M  V30 182 2 54 137
M  V30 183 2 32 145
M  V30 184 2 73 151
M  V30 185 2 51 159
M  V30 186 2 76 165
M  V30 END BOND
M  V30 END CTAB
M  END

$$$$
