
     RDKit          3D

  0  0  0  0  0  0  0  0  0  0999 V3000
M  V30 BEGIN CTAB
M  V30 COUNTS 500 516 0 0 0
M  V30 BEGIN ATOM
M  V30 1 N -7.2524 11.8461 -11.8461 0
M  V30 2 C -8.0941 11.0576 -10.9248 0
M  V30 3 C -9.4177 10.9436 -11.5787 0
M  V30 4 N -10.4069 10.1544 -10.8001 0
M  V30 5 C -10.6940 10.9838 -9.6432 0
M  V30 6 C -11.7590 10.5384 -8.7238 0
M  V30 7 N -11.8346 11.5079 -7.6020 0
M  V30 8 C -11.5173 10.0100 -11.6831 0
M  V30 9 C -12.4806 8.9141 -11.4222 0
M  V30 10 N -11.8576 7.5905 -11.4964 0
M  V30 11 H -7.5656 10.1098 -10.7697 0
M  V30 12 H -8.1565 11.6897 -10.0189 0
M  V30 13 H -9.8581 11.9641 -11.6753 0
M  V30 14 H -9.4053 10.4945 -12.5737 0
M  V30 15 H -9.7610 11.0864 -9.0337 0
M  V30 16 H -10.8953 12.0130 -10.0681 0
M  V30 17 H -12.7433 10.7103 -9.2415 0
M  V30 18 H -11.6278 9.5624 -8.2858 0
M  V30 19 H -11.1834 9.9254 -12.7621 0
M  V30 20 H -12.1283 10.9726 -11.6605 0
M  V30 21 H -13.0792 8.9169 -10.5368 0
M  V30 22 H -13.2105 8.9378 -12.2906 0
M  V30 23 N -11.8461 -7.2524 -11.8461 0
M  V30 24 C -11.0576 -8.0941 -10.9248 0
M  V30 25 C -10.9436 -9.4177 -11.5787 0
M  V30 26 N -10.1544 -10.4069 -10.8001 0
M  V30 27 C -10.9838 -10.6940 -9.6432 0
M  V30 28 C -10.5384 -11.7590 -8.7238 0
M  V30 29 N -11.5079 -11.8346 -7.6020 0
M  V30 30 C -10.0100 -11.5173 -11.6831 0
M  V30 31 C -8.9141 -12.4806 -11.4222 0
M  V30 32 N -7.5905 -11.8576 -11.4964 0
M  V30 33 H -10.1098 -7.5656 -10.7697 0
M  V30 34 H -11.6897 -8.1565 -10.0189 0
M  V30 35 H -11.9641 -9.8581 -11.6753 0
M  V30 36 H -10.4945 -9.4053 -12.5737 0
M  V30 37 H -11.0864 -9.7610 -9.0337 0
M  V30 38 H -12.0130 -10.8953 -10.0681 0
M  V30 39 H -10.7103 -12.7433 -9.2415 0
M  V30 40 H -9.5624 -11.6278 -8.2858 0
M  V30 41 H -9.9254 -11.1834 -12.7621 0
M  V30 42 H -10.9726 -12.1283 -11.6605 0
M  V30 43 H -8.9169 -13.0792 -10.5368 0
M  V30 44 H -8.9378 -13.2105 -12.2906 0
M  V30 45 N 7.2524 11.8461 -11.8461 0
M  V30 46 C 8.0941 10.9248 -11.0576 0
M  V30 47 C 9.4177 11.5787 -10.9436 0
M  V30 48 N 10.4069 10.8001 -10.1544 0
M  V30 49 C 10.6940 9.6432 -10.9838 0
M  V30 50 C 11.7590 8.7238 -10.5384 0
M  V30 51 N 11.8346 7.6020 -11.5079 0
M  V30 52 C 11.5173 11.6831 -10.0100 0
M  V30 53 C 12.4806 11.4222 -8.9141 0
M  V30 54 N 11.8576 11.4964 -7.5905 0
M  V30 55 H 7.5656 10.7697 -10.1098 0
M  V30 56 H 8.1565 10.0189 -11.6897 0
M  V30 57 H 9.8581 11.6753 -11.9641 0
M  V30 58 H 9.4053 12.5737 -10.4945 0
M  V30 59 H 9.7610 9.0337 -11.0864 0
M  V30 60 H 10.8953 10.0681 -12.0130 0
M  V30 61 H 12.7433 9.2415 -10.7103 0
M  V30 62 H 11.6278 8.2858 -9.5624 0
M  V30 63 H 11.1834 12.7621 -9.9254 0
M  V30 64 H 12.1283 11.6605 -10.9726 0
M  V30 65 H 13.0792 10.5368 -8.9169 0
M  V30 66 H 13.2105 12.2906 -8.9378 0
M  V30 67 N 7.2524 -11.8461 -11.8461 0
M  V30 68 C 8.0941 -11.0576 -10.9248 0
M  V30 69 C 9.4177 -10.9436 -11.5787 0
M  V30 70 N 10.4069 -10.1544 -10.8001 0
M  V30 71 C 10.6940 -10.9838 -9.6432 0
M  V30 72 C 11.7590 -10.5384 -8.7238 0
M  V30 73 N 11.8346 -11.5079 -7.6020 0
M  V30 74 C 11.5173 -10.0100 -11.6831 0
M  V30 75 C 12.4806 -8.9141 -11.4222 0
M  V30 76 N 11.8576 -7.5905 -11.4964 0
M  V30 77 H 7.5656 -10.1098 -10.7697 0
M  V30 78 H 8.1565 -11.6897 -10.0189 0
M  V30 79 H 9.8581 -11.9641 -11.6753 0
M  V30 80 H 9.4053 -10.4945 -12.5737 0
M  V30 81 H 9.7610 -11.0864 -9.0337 0
M  V30 82 H 10.8953 -12.0130 -10.0681 0
M  V30 83 H 12.7433 -10.7103 -9.2415 0
M  V30 84 H 11.6278 -9.5624 -8.2858 0
M  V30 85 H 11.1834 -9.9254 -12.7621 0
M  V30 86 H 12.1283 -10.9726 -11.6605 0
M  V30 87 H 13.0792 -8.9169 -10.5368 0
M  V30 88 H 13.2105 -8.9378 -12.2906 0
M  V30 89 N -7.2524 11.8461 11.8461 0
M  V30 90 C -8.0941 10.9248 11.0576 0
M  V30 91 C -9.4177 11.5787 10.9436 0
M  V30 92 N -10.4069 10.8001 10.1544 0
M  V30 93 C -10.6940 9.6432 10.9838 0
M  V30 94 C -11.7590 8.7238 10.5384 0
M  V30 95 N -11.8346 7.6020 11.5079 0
M  V30 96 C -11.5173 11.6831 10.0100 0
M  V30 97 C -12.4806 11.4222 8.9141 0
M  V30 98 N -11.8576 11.4964 7.5905 0
M  V30 99 H -7.5656 10.7697 10.1098 0
M  V30 100 H -8.1565 10.0189 11.6897 0
M  V30 101 H -9.8581 11.6753 11.9641 0
M  V30 102 H -9.4053 12.5737 10.4945 0
M  V30 103 H -9.7610 9.0337 11.0864 0
M  V30 104 H -10.8953 10.0681 12.0130 0
M  V30 105 H -12.7433 9.2415 10.7103 0
M  V30 106 H -11.6278 8.2858 9.5624 0
M  V30 107 H -11.1834 12.7621 9.9254 0
M  V30 108 H -12.1283 11.6605 10.9726 0
M  V30 109 H -13.0792 10.5368 8.9169 0
M  V30 110 H -13.2105 12.2906 8.9378 0
M  V30 111 N -11.8461 -7.2524 11.8461 0
M  V30 112 C -10.9248 -8.0941 11.0576 0
M  V30 113 C -11.5787 -9.4177 10.9436 0
M  V30 114 N -10.8001 -10.4069 10.1544 0
M  V30 115 C -9.6432 -10.6940 10.9838 0
M  V30 116 C -8.7238 -11.7590 10.5384 0
M  V30 117 N -7.6020 -11.8346 11.5079 0
M  V30 118 C -11.6831 -11.5173 10.0100 0
M  V30 119 C -11.4222 -12.4806 8.9141 0
M  V30 120 N -11.4964 -11.8576 7.5905 0
M  V30 121 H -10.7697 -7.5656 10.1098 0
M  V30 122 H -10.0189 -8.1565 11.6897 0
M  V30 123 H -11.6753 -9.8581 11.9641 0
M  V30 124 H -12.5737 -9.4053 10.4945 0
M  V30 125 H -9.0337 -9.7610 11.0864 0
M  V30 126 H -10.0681 -10.8953 12.0130 0
M  V30 127 H -9.2415 -12.7433 10.7103 0
M  V30 128 H -8.2858 -11.6278 9.5624 0
M  V30 129 H -12.7621 -11.1834 9.9254 0
M  V30 130 H -11.6605 -12.1283 10.9726 0
M  V30 131 H -10.5368 -13.0792 8.9169 0
M  V30 132 H -12.2906 -13.2105 8.9378 0
M  V30 133 N 7.2524 11.8461 11.8461 0
M  V30 134 C 8.0941 11.0576 10.9248 0
M  V30 135 C 9.4177 10.9436 11.5787 0
M  V30 136 N 10.4069 10.1544 10.8001 0
M  V30 137 C 10.6940 10.9838 9.6432 0
M  V30 138 C 11.7590 10.5384 8.7238 0
M  V30 139 N 11.8346 11.5079 7.6020 0
M  V30 140 C 11.5173 10.0100 11.6831 0
M  V30 141 C 12.4806 8.9141 11.4222 0
M  V30 142 N 11.8576 7.5905 11.4964 0
M  V30 143 H 7.5656 10.1098 10.7697 0
M  V30 144 H 8.1565 11.6897 10.0189 0
M  V30 145 H 9.8581 11.9641 11.6753 0
M  V30 146 H 9.4053 10.4945 12.5737 0
M  V30 147 H 9.7610 11.0864 9.0337 0
M  V30 148 H 10.8953 12.0130 10.0681 0
M  V30 149 H 12.7433 10.7103 9.2415 0
M  V30 150 H 11.6278 9.5624 8.2858 0
M  V30 151 H 11.1834 9.9254 12.7621 0
M  V30 152 H 12.1283 10.9726 11.6605 0
M  V30 153 H 13.0792 8.9169 10.5368 0
M  V30 154 H 13.2105 8.9378 12.2906 0
M  V30 155 N 7.2524 -11.8461 11.8461 0
M  V30 156 C 8.0941 -10.9248 11.0576 0
M  V30 157 C 9.4177 -11.5787 10.9436 0
M  V30 158 N 10.4069 -10.8001 10.1544 0
M  V30 159 C 10.6940 -9.6432 10.9838 0
M  V30 160 C 11.7590 -8.7238 10.5384 0
M  V30 161 N 11.8346 -7.6020 11.5079 0
M  V30 162 C 11.5173 -11.6831 10.0100 0
M  V30 163 C 12.4806 -11.4222 8.9141 0
M  V30 164 N 11.8576 -11.4964 7.5905 0
M  V30 165 H 7.5656 -10.7697 10.1098 0
M  V30 166 H 8.1565 -10.0189 11.6897 0
M  V30 167 H 9.8581 -11.6753 11.9641 0
M  V30 168 H 9.4053 -12.5737 10.4945 0
M  V30 169 H 9.7610 -9.0337 11.0864 0
M  V30 170 H 10.8953 -10.0681 12.0130 0
M  V30 171 H 12.7433 -9.2415 10.7103 0
M  V30 172 H 11.6278 -8.2858 9.5624 0
M  V30 173 H 11.1834 -12.7621 9.9254 0
M  V30 174 H 12.1283 -11.6605 10.9726 0
M  V30 175 H 13.0792 -10.5368 8.9169 0
M  V30 176 H 13.2105 -12.2906 8.9378 0
M  V30 177 C -1.4425 15.1513 -15.2680 0
M  V30 178 C -0.0194 14.8255 -14.9301 0
M  V30 179 C 0.6814 16.0730 -14.4005 0
M  V30 180 C 0.6841 14.4419 -16.2025 0
M  V30 181 C 0.0373 13.8123 -13.8814 0
M  V30 182 C -1.1441 13.3218 -13.3736 0
M  V30 183 C -1.1808 12.3534 -12.3712 0
M  V30 184 C -2.4385 11.8461 -11.8461 0
M  V30 185 C 0.0122 11.8797 -11.8809 0
M  V30 186 O -0.0207 10.9199 -10.8874 0
M  V30 187 C 1.2044 12.3692 -12.3877 0
M  V30 188 C 2.4385 11.8461 -11.8461 0
M  V30 189 C 1.2246 13.3186 -13.3703 0
M  V30 190 H -2.0321 15.5338 -14.3934 0
M  V30 191 H -1.4817 15.9099 -16.1056 0
M  V30 192 H -1.9828 14.2495 -15.6215 0
M  V30 193 H 0.0566 16.4777 -13.5837 0
M  V30 194 H 0.8759 16.7955 -15.1988 0
M  V30 195 H 1.6501 15.7683 -13.9274 0
M  V30 196 H 0.4508 13.4040 -16.5296 0
M  V30 197 H 1.7746 14.6444 -16.1721 0
M  V30 198 H 0.2751 15.1040 -17.0003 0
M  V30 199 H -2.1244 13.6428 -13.7059 0
M  V30 200 H -3.3717 12.2137 -12.2266 0
M  V30 201 H -0.2954 11.2138 -9.9651 0
M  V30 202 H 2.4242 11.1059 -11.0798 0
M  V30 203 H 2.1295 13.7300 -13.7962 0
M  V30 204 C -15.2990 1.6116 -14.9501 0
M  V30 205 C -14.9587 0.1885 -14.6269 0
M  V30 206 C -14.4386 -0.5124 -15.8784 0
M  V30 207 C -16.2281 -0.5150 -14.2335 0
M  V30 208 C -13.9022 0.1317 -13.6218 0
M  V30 209 C -13.3907 1.3132 -13.1352 0
M  V30 210 C -12.3809 1.3499 -12.1745 0
M  V30 211 C -11.8518 2.6076 -11.6712 0
M  V30 212 C -11.8869 0.1569 -11.7046 0
M  V30 213 O -10.8861 0.1897 -10.7524 0
M  V30 214 C -12.3974 -1.0353 -12.1902 0
M  V30 215 C -11.8518 -2.2694 -11.6712 0
M  V30 216 C -13.3874 -1.0555 -13.1320 0
M  V30 217 H -14.4274 2.2012 -15.3393 0
M  V30 218 H -16.1425 1.6508 -15.7022 0
M  V30 219 H -15.6456 2.1519 -14.0456 0
M  V30 220 H -13.6250 0.1124 -16.2894 0
M  V30 221 H -15.2425 -0.7069 -16.5948 0
M  V30 222 H -13.9632 -1.4810 -15.5773 0
M  V30 223 H -16.5471 -0.2817 -13.1931 0
M  V30 224 H -16.1992 -1.6056 -14.4362 0
M  V30 225 H -17.0309 -0.1060 -14.8895 0
M  V30 226 H -13.7254 2.2935 -13.4536 0
M  V30 227 H -12.2352 3.5407 -12.0359 0
M  V30 228 H -9.9661 0.4645 -11.0534 0
M  V30 229 H -11.0799 -2.2551 -10.9370 0
M  V30 230 H -13.8163 -1.9604 -13.5401 0
M  V30 231 C -1.6116 -15.2990 -14.9501 0
M  V30 232 C -0.1885 -14.9587 -14.6269 0
M  V30 233 C 0.5124 -14.4386 -15.8784 0
M  V30 234 C 0.5150 -16.2281 -14.2335 0
M  V30 235 C -0.1317 -13.9022 -13.6218 0
M  V30 236 C -1.3132 -13.3907 -13.1352 0
M  V30 237 C -1.3499 -12.3809 -12.1745 0
M  V30 238 C -2.6076 -11.8518 -11.6712 0
M  V30 239 C -0.1569 -11.8869 -11.7046 0
M  V30 240 O -0.1897 -10.8861 -10.7524 0
M  V30 241 C 1.0353 -12.3974 -12.1902 0
M  V30 242 C 2.2694 -11.8518 -11.6712 0
M  V30 243 C 1.0555 -13.3874 -13.1320 0
M  V30 244 H -2.2012 -14.4274 -15.3393 0
M  V30 245 H -1.6508 -16.1425 -15.7022 0
M  V30 246 H -2.1519 -15.6456 -14.0456 0
M  V30 247 H -0.1124 -13.6250 -16.2894 0
M  V30 248 H 0.7069 -15.2425 -16.5948 0
M  V30 249 H 1.4810 -13.9632 -15.5773 0
M  V30 250 H 0.2817 -16.5471 -13.1931 0
M  V30 251 H 1.6056 -16.1992 -14.4362 0
M  V30 252 H 0.1060 -17.0309 -14.8895 0
M  V30 253 H -2.2935 -13.7254 -13.4536 0
M  V30 254 H -3.5407 -12.2352 -12.0359 0
M  V30 255 H -0.4645 -9.9661 -11.0534 0
M  V30 256 H 2.2551 -11.0799 -10.9370 0
M  V30 257 H 1.9604 -13.8163 -13.5401 0
M  V30 258 C 15.2013 1.4483 -14.8750 0
M  V30 259 C 14.8706 0.0252 -14.5420 0
M  V30 260 C 16.1102 -0.6757 -13.9941 0
M  V30 261 C 14.5058 -0.6783 -15.8199 0
M  V30 262 C 13.8421 -0.0316 -13.5083 0
M  V30 263 C 13.3441 1.1499 -13.0078 0
M  V30 264 C 12.3611 1.1866 -12.0198 0
M  V30 265 C 11.8461 2.4443 -11.5022 0
M  V30 266 C 11.8802 -0.0064 -11.5365 0
M  V30 267 O 10.9059 0.0264 -10.5572 0
M  V30 268 C 12.3772 -1.1986 -12.0360 0
M  V30 269 C 11.8461 -2.4328 -11.5022 0
M  V30 270 C 13.3409 -1.2188 -13.0046 0
M  V30 271 H 15.5709 2.0379 -13.9949 0
M  V30 272 H 15.9721 1.4874 -15.7014 0
M  V30 273 H 14.3049 1.9885 -15.2417 0
M  V30 274 H 16.5028 -0.0509 -13.1714 0
M  V30 275 H 16.8443 -0.8702 -14.7817 0
M  V30 276 H 15.7985 -1.6444 -13.5255 0
M  V30 277 H 13.4728 -0.4450 -16.1622 0
M  V30 278 H 14.7078 -1.7689 -15.7865 0
M  V30 279 H 15.1796 -0.2693 -16.6079 0
M  V30 280 H 13.6700 2.1302 -13.3353 0
M  V30 281 H 12.2193 3.3774 -11.8772 0
M  V30 282 H 11.1861 0.3012 -9.6307 0
M  V30 283 H 11.0947 -2.4184 -10.7469 0
M  V30 284 H 13.7585 -2.1238 -13.4243 0
M  V30 285 C -1.4425 15.2680 15.1513 0
M  V30 286 C -0.0194 14.9301 14.8255 0
M  V30 287 C 0.6814 14.4005 16.0730 0
M  V30 288 C 0.6841 16.2025 14.4419 0
M  V30 289 C 0.0373 13.8814 13.8123 0
M  V30 290 C -1.1441 13.3736 13.3218 0
M  V30 291 C -1.1808 12.3712 12.3534 0
M  V30 292 C -2.4385 11.8461 11.8461 0
M  V30 293 C 0.0122 11.8809 11.8797 0
M  V30 294 O -0.0207 10.8874 10.9199 0
M  V30 295 C 1.2044 12.3877 12.3692 0
M  V30 296 C 2.4385 11.8461 11.8461 0
M  V30 297 C 1.2246 13.3703 13.3186 0
M  V30 298 H -2.0321 14.3934 15.5338 0
M  V30 299 H -1.4817 16.1056 15.9099 0
M  V30 300 H -1.9828 15.6215 14.2495 0
M  V30 301 H 0.0566 13.5837 16.4777 0
M  V30 302 H 0.8759 15.1988 16.7955 0
M  V30 303 H 1.6501 13.9274 15.7683 0
M  V30 304 H 0.4508 16.5296 13.4040 0
M  V30 305 H 1.7746 16.1721 14.6444 0
M  V30 306 H 0.2751 17.0003 15.1040 0
M  V30 307 H -2.1244 13.7059 13.6428 0
M  V30 308 H -3.3717 12.2266 12.2137 0
M  V30 309 H -0.2954 9.9651 11.2138 0
M  V30 310 H 2.4242 11.0798 11.1059 0
M  V30 311 H 2.1295 13.7962 13.7300 0
M  V30 312 C -15.1692 1.6174 15.0759 0
M  V30 313 C -14.8411 0.1943 14.7403 0
M  V30 314 C -16.0849 -0.5066 14.2020 0
M  V30 315 C -14.4663 -0.5092 16.0153 0
M  V30 316 C -13.8207 0.1375 13.6987 0
M  V30 317 C -13.3266 1.3189 13.1943 0
M  V30 318 C -12.3513 1.3556 12.1986 0
M  V30 319 C -11.8403 2.6134 11.6770 0
M  V30 320 C -11.8742 0.1627 11.7116 0
M  V30 321 O -10.9075 0.1955 10.7248 0
M  V30 322 C -12.3672 -1.0295 12.2149 0
M  V30 323 C -11.8403 -2.2637 11.6770 0
M  V30 324 C -13.3234 -1.0498 13.1910 0
M  V30 325 H -15.5457 2.2070 14.1987 0
M  V30 326 H -15.9336 1.6565 15.9082 0
M  V30 327 H -14.2699 2.1576 15.4356 0
M  V30 328 H -16.4839 0.1182 13.3824 0
M  V30 329 H -16.8129 -0.7011 14.9953 0
M  V30 330 H -15.7769 -1.4753 13.7310 0
M  V30 331 H -13.4307 -0.2759 16.3496 0
M  V30 332 H -14.6686 -1.5998 15.9835 0
M  V30 333 H -15.1340 -0.1002 16.8085 0
M  V30 334 H -13.6499 2.2993 13.5243 0
M  V30 335 H -12.2106 3.5465 12.0550 0
M  V30 336 H -11.1949 0.4702 9.8005 0
M  V30 337 H -11.0948 -2.2494 10.9159 0
M  V30 338 H -13.7377 -1.9547 13.6140 0
M  V30 339 C -1.6174 -15.1692 15.0759 0
M  V30 340 C -0.1943 -14.8411 14.7403 0
M  V30 341 C 0.5066 -16.0849 14.2020 0
M  V30 342 C 0.5092 -14.4663 16.0153 0
M  V30 343 C -0.1375 -13.8207 13.6987 0
M  V30 344 C -1.3189 -13.3266 13.1943 0
M  V30 345 C -1.3556 -12.3513 12.1986 0
M  V30 346 C -2.6134 -11.8403 11.6770 0
M  V30 347 C -0.1627 -11.8742 11.7116 0
M  V30 348 O -0.1955 -10.9075 10.7248 0
M  V30 349 C 1.0295 -12.3672 12.2149 0
M  V30 350 C 2.2637 -11.8403 11.6770 0
M  V30 351 C 1.0498 -13.3234 13.1910 0
M  V30 352 H -2.2070 -15.5457 14.1987 0
M  V30 353 H -1.6565 -15.9336 15.9082 0
M  V30 354 H -2.1576 -14.2699 15.4356 0
M  V30 355 H -0.1182 -16.4839 13.3824 0
M  V30 356 H 0.7011 -16.8129 14.9953 0
M  V30 357 H 1.4753 -15.7769 13.7310 0
M  V30 358 H 0.2759 -13.4307 16.3496 0
M  V30 359 H 1.5998 -14.6686 15.9835 0
M  V30 360 H 0.1002 -15.1340 16.8085 0
M  V30 361 H -2.2993 -13.6499 13.5243 0
M  V30 362 H -3.5465 -12.2106 12.0550 0
M  V30 363 H -0.4702 -11.1949 9.8005 0
M  V30 364 H 2.2494 -11.0948 10.9159 0
M  V30 365 H 1.9547 -13.7377 13.6140 0
M  V30 366 C 15.3163 1.4368 14.7566 0
M  V30 367 C 14.9737 0.0137 14.4358 0
M  V30 368 C 14.4625 -0.6872 15.6910 0
M  V30 369 C 16.2403 -0.6898 14.0335 0
M  V30 370 C 13.9102 -0.0431 13.4382 0
M  V30 371 C 13.3952 1.1383 12.9552 0
M  V30 372 C 12.3786 1.1750 12.0017 0
M  V30 373 C 11.8461 2.4328 11.5022 0
M  V30 374 C 11.8814 -0.0179 11.5353 0
M  V30 375 O 10.8739 0.0149 10.5902 0
M  V30 376 C 12.3953 -1.2101 12.0173 0
M  V30 377 C 11.8461 -2.4443 11.5022 0
M  V30 378 C 13.3919 -1.2304 12.9521 0
M  V30 379 H 14.4474 2.0264 15.1520 0
M  V30 380 H 16.1650 1.4759 15.5028 0
M  V30 381 H 15.6565 1.9770 13.8498 0
M  V30 382 H 13.6517 -0.0624 16.1077 0
M  V30 383 H 15.2714 -0.8817 16.4017 0
M  V30 384 H 13.9849 -1.6559 15.3933 0
M  V30 385 H 16.5520 -0.4565 12.9909 0
M  V30 386 H 16.2128 -1.7804 14.2364 0
M  V30 387 H 17.0477 -0.2808 14.6839 0
M  V30 388 H 13.7321 2.1187 13.2713 0
M  V30 389 H 12.2320 3.3659 11.8641 0
M  V30 390 H 9.9560 0.2896 10.8976 0
M  V30 391 H 11.0690 -2.4300 10.7733 0
M  V30 392 H 13.8237 -2.1353 13.3571 0
M  V30 393 C -15.2013 14.8750 -1.4483 0
M  V30 394 C -14.8706 14.5420 -0.0252 0
M  V30 395 C -16.1102 13.9941 0.6757 0
M  V30 396 C -14.5058 15.8199 0.6783 0
M  V30 397 C -13.8421 13.5083 0.0316 0
M  V30 398 C -13.3441 13.0078 -1.1499 0
M  V30 399 C -12.3611 12.0198 -1.1866 0
M  V30 400 C -11.8461 11.5022 -2.4443 0
M  V30 401 C -11.8802 11.5365 0.0064 0
M  V30 402 O -10.9059 10.5572 -0.0264 0
M  V30 403 C -12.3772 12.0360 1.1986 0
M  V30 404 C -11.8461 11.5022 2.4328 0
M  V30 405 C -13.3409 13.0046 1.2188 0
M  V30 406 H -15.5709 13.9949 -2.0379 0
M  V30 407 H -15.9721 15.7014 -1.4874 0
M  V30 408 H -14.3049 15.2417 -1.9885 0
M  V30 409 H -16.5028 13.1714 0.0509 0
M  V30 410 H -16.8443 14.7817 0.8702 0
M  V30 411 H -15.7985 13.5255 1.6444 0
M  V30 412 H -13.4728 16.1622 0.4450 0
M  V30 413 H -14.7078 15.7865 1.7689 0
M  V30 414 H -15.1796 16.6079 0.2693 0
M  V30 415 H -13.6700 13.3353 -2.1302 0
M  V30 416 H -12.2193 11.8772 -3.3774 0
M  V30 417 H -11.1861 9.6307 -0.3012 0
M  V30 418 H -11.0947 10.7469 2.4184 0
M  V30 419 H -13.7585 13.4243 2.1238 0
M  V30 420 C -14.8750 -15.2013 -1.4483 0
M  V30 421 C -14.5420 -14.8706 -0.0252 0
M  V30 422 C -13.9941 -16.1102 0.6757 0
M  V30 423 C -15.8199 -14.5058 0.6783 0
M  V30 424 C -13.5083 -13.8421 0.0316 0
M  V30 425 C -13.0078 -13.3441 -1.1499 0
M  V30 426 C -12.0198 -12.3611 -1.1866 0
M  V30 427 C -11.5022 -11.8461 -2.4443 0
M  V30 428 C -11.5365 -11.8802 0.0064 0
M  V30 429 O -10.5572 -10.9059 -0.0264 0
M  V30 430 C -12.0360 -12.3772 1.1986 0
M  V30 431 C -11.5022 -11.8461 2.4328 0
M  V30 432 C -13.0046 -13.3409 1.2188 0
M  V30 433 H -13.9949 -15.5709 -2.0379 0
M  V30 434 H -15.7014 -15.9721 -1.4874 0
M  V30 435 H -15.2417 -14.3049 -1.9885 0
M  V30 436 H -13.1714 -16.5028 0.0509 0
M  V30 437 H -14.7817 -16.8443 0.8702 0
M  V30 438 H -13.5255 -15.7985 1.6444 0
M  V30 439 H -16.1622 -13.4728 0.4450 0
M  V30 440 H -15.7865 -14.7078 1.7689 0
M  V30 441 H -16.6079 -15.1796 0.2693 0
M  V30 442 H -13.3353 -13.6700 -2.1302 0
M  V30 443 H -11.8772 -12.2193 -3.3774 0
M  V30 444 H -9.6307 -11.1861 -0.3012 0
M  V30 445 H -10.7469 -11.0947 2.4184 0
M  V30 446 H -13.4243 -13.7585 2.1238 0
M  V30 447 C 15.3163 14.7566 -1.4368 0
M  V30 448 C 14.9737 14.4358 -0.0137 0
M  V30 449 C 14.4625 15.6910 0.6872 0
M  V30 450 C 16.2403 14.0335 0.6898 0
M  V30 451 C 13.9102 13.4382 0.0431 0
M  V30 452 C 13.3952 12.9552 -1.1383 0
M  V30 453 C 12.3786 12.0017 -1.1750 0
M  V30 454 C 11.8461 11.5022 -2.4328 0
M  V30 455 C 11.8814 11.5353 0.0179 0
M  V30 456 O 10.8739 10.5902 -0.0149 0
M  V30 457 C 12.3953 12.0173 1.2101 0
M  V30 458 C 11.8461 11.5022 2.4443 0
M  V30 459 C 13.3919 12.9521 1.2304 0
M  V30 460 H 14.4474 15.1520 -2.0264 0
M  V30 461 H 16.1650 15.5028 -1.4759 0
M  V30 462 H 15.6565 13.8498 -1.9770 0
M  V30 463 H 13.6517 16.1077 0.0624 0
M  V30 464 H 15.2714 16.4017 0.8817 0
M  V30 465 H 13.9849 15.3933 1.6559 0
M  V30 466 H 16.5520 12.9909 0.4565 0
M  V30 467 H 16.2128 14.2364 1.7804 0
M  V30 468 H 17.0477 14.6839 0.2808 0
M  V30 469 H 13.7321 13.2713 -2.1187 0
M  V30 470 H 12.2320 11.8641 -3.3659 0
M  V30 471 H 9.9560 10.8976 -0.2896 0
M  V30 472 H 11.0690 10.7733 2.4300 0
M  V30 473 H 13.8237 13.3571 2.1353 0
M  V30 474 C 15.2013 -14.8750 -1.4483 0
M  V30 475 C 14.8706 -14.5420 -0.0252 0
M  V30 476 C 16.1102 -13.9941 0.6757 0
M  V30 477 C 14.5058 -15.8199 0.6783 0
M  V30 478 C 13.8421 -13.5083 0.0316 0
M  V30 479 C 13.3441 -13.0078 -1.1499 0
M  V30 480 C 12.3611 -12.0198 -1.1866 0
M  V30 481 C 11.8461 -11.5022 -2.4443 0
M  V30 482 C 11.8802 -11.5365 0.0064 0
M  V30 483 O 10.9059 -10.5572 -0.0264 0
M  V30 484 C 12.3772 -12.0360 1.1986 0
M  V30 485 C 11.8461 -11.5022 2.4328 0
M  V30 486 C 13.3409 -13.0046 1.2188 0
M  V30 487 H 15.5709 -13.9949 -2.0379 0
M  V30 488 H 15.9721 -15.7014 -1.4874 0
M  V30 489 H 14.3049 -15.2417 -1.9885 0
M  V30 490 H 16.5028 -13.1714 0.0509 0
M  V30 491 H 16.8443 -14.7817 0.8702 0
M  V30 492 H 15.7985 -13.5255 1.6444 0
M  V30 493 H 13.4728 -16.1622 0.4450 0
M  V30 494 H 14.7078 -15.7865 1.7689 0
M  V30 495 H 15.1796 -16.6079 0.2693 0
M  V30 496 H 13.6700 -13.3353 -2.1302 0
M  V30 497 H 12.2193 -11.8772 -3.3774 0
M  V30 498 H 11.1861 -9.6307 -0.3012 0
M  V30 499 H 11.0947 -10.7469 2.4184 0
M  V30 500 H 13.7585 -13.4243 2.1238 0
M  V30 END ATOM
M  V30 BEGIN BOND
M  V30 1 1 1 2
M  V30 2 1 2 3
M  V30 3 1 3 4
M  V30 4 1 4 5
M  V30 5 1 5 6
M  V30 6 1 6 7
M  V30 7 1 4 8
M  V30 8 1 8 9
M  V30 9 1 9 10
M  V30 10 1 2 11
M  V30 11 1 2 12
M  V30 12 1 3 13
M  V30 13 1 3 14
M  V30 14 1 5 15
M  V30 15 1 5 16
M  V30 16 1 6 17
M  V30 17 1 6 18
M  V30 18 1 8 19
M  V30 19 1 8 20
M  V30 20 1 9 21
M  V30 21 1 9 22
M  V30 22 1 23 24
M  V30 23 1 24 25
M  V30 24 1 25 26
M  V30 25 1 26 27
M  V30 26 1 27 28
M  V30 27 1 28 29
M  V30 28 1 26 30
M  V30 29 1 30 31
M  V30 30 1 31 32
M  V30 31 1 24 33
M  V30 32 1 24 34
M  V30 33 1 25 35
M  V30 34 1 25 36
M  V30 35 1 27 37
M  V30 36 1 27 38
M  V30 37 1 28 39
M  V30 38 1 28 40
M  V30 39 1 30 41
M  V30 40 1 30 42
M  V30 41 1 31 43
M  V30 42 1 31 44
M  V30 43 1 45 46
M  V30 44 1 46 47
M  V30 45 1 47 48
M  V30 46 1 48 49
M  V30 47 1 49 50
M  V30 48 1 50 51
M  V30 49 1 48 52
M  V30 50 1 52 53
M  V30 51 1 53 54
M  V30 52 1 46 55
M  V30 53 1 46 56
M  V30 54 1 47 57
M  V30 55 1 47 58
M  V30 56 1 49 59
M  V30 57 1 49 60
M  V30 58 1 50 61
M  V30 59 1 50 62
M  V30 60 1 52 63
M  V30 61 1 52 64
M  V30 62 1 53 65
M  V30 63 1 53 66
M  V30 64 1 67 68
M  V30 65 1 68 69
M  V30 66 1 69 70
M  V30 67 1 70 71
M  V30 68 1 71 72
M  V30 69 1 72 73
M  V30 70 1 70 74
M  V30 71 1 74 75
M  V30 72 1 75 76
M  V30 73 1 68 77
M  V30 74 1 68 78
M  V30 75 1 69 79
M  V30 76 1 69 80
M  V30 77 1 71 81
M  V30 78 1 71 82
M  V30 79 1 72 83
M  V30 80 1 72 84
M  V30 81 1 74 85
M  V30 82 1 74 86
M  V30 83 1 75 87
M  V30 84 1 75 88
M  V30 85 1 89 90
M  V30 86 1 90 91
M  V30 87 1 91 92
M  V30 88 1 92 93
M  V30 89 1 93 94
M  V30 90 1 94 95
M  V30 91 1 92 96
M  V30 92 1 96 97
M  V30 93 1 97 98
M  V30 94 1 90 99
M  V30 95 1 90 100
M  V30 96 1 91 101
M  V30 97 1 91 102
M  V30 98 1 93 103
M  V30 99 1 93 104
M  V30 100 1 94 105
M  V30 101 1 94 106
M  V30 102 1 96 107
M  V30 103 1 96 108
M  V30 104 1 97 109
M  V30 105 1 97 110
M  V30 106 1 111 112
M  V30 107 1 112 113
M  V30 108 1 113 114
M  V30 109 1 114 115
M  V30 110 1 115 116
M  V30 111 1 116 117
M  V30 112 1 114 118
M  V30 113 1 118 119
M  V30 114 1 119 120
M  V30 115 1 112 121
M  V30 116 1 112 122
M  V30 117 1 113 123
M  V30 118 1 113 124
M  V30 119 1 115 125
M  V30 120 1 115 126
M  V30 121 1 116 127
M  V30 122 1 116 128
M  V30 123 1 118 129
M  V30 124 1 118 130
M  V30 125 1 119 131
M  V30 126 1 119 132
M  V30 127 1 133 134
M  V30 128 1 134 135
M  V30 129 1 135 136
M  V30 130 1 136 137
M  V30 131 1 137 138
M  V30 132 1 138 139
M  V30 133 1 136 140
M  V30 134 1 140 141
M  V30 135 1 141 142
M  V30 136 1 134 143
M  V30 137 1 134 144
M  V30 138 1 135 145
M  V30 139 1 135 146
M  V30 140 1 137 147
M  V30 141 1 137 148
M  V30 142 1 138 149
M  V30 143 1 138 150
M  V30 144 1 140 151
M  V30 145 1 140 152
M  V30 146 1 141 153
M  V30 147 1 141 154
M  V30 148 1 155 156
M  V30 149 1 156 157
M  V30 150 1 157 158
M  V30 151 1 158 159
M  V30 152 1 159 160
M  V30 153 1 160 161
M  V30 154 1 158 162
M  V30 155 1 162 163
M  V30 156 1 163 164
M  V30 157 1 156 165
M  V30 158 1 156 166
M  V30 159 1 157 167
M  V30 160 1 157 168
M  V30 161 1 159 169
M  V30 162 1 159 170
M  V30 163 1 160 171
M  V30 164 1 160 172
M  V30 165 1 162 173
M  V30 166 1 162 174
M  V30 167 1 163 175
M  V30 168 1 163 176
M  V30 169 1 177 178
M  V30 170 1 178 179
M  V30 171 1 178 180
M  V30 172 1 178 181
M  V30 173 2 181 182
M  V30 174 1 182 183
M  V30 175 1 183 184
M  V30 176 2 183 185
M  V30 177 1 185 186
M  V30 178 1 185 187
M  V30 179 1 187 188
M  V30 180 2 187 189
M  V30 181 1 189 181
M  V30 182 1 177 190
M  V30 183 1 177 191
M  V30 184 1 177 192
M  V30 185 1 179 193
M  V30 186 1 179 194
M  V30 187 1 179 195
M  V30 188 1 180 196
M  V30 189 1 180 197
M  V30 190 1 180 198
M  V30 191 1 182 199
M  V30 192 1 184 200
M  V30 193 1 186 201
M  V30 194 1 188 202
M  V30 195 1 189 203
M  V30 196 1 204 205
M  V30 197 1 205 206
M  V30 198 1 205 207
M  V30 199 1 205 208
M  V30 200 2 208 209
M  V30 201 1 209 210
M  V30 202 1 210 211
M  V30 203 2 210 212
M  V30 204 1 212 213
M  V30 205 1 212 214
M  V30 206 1 214 215
M  V30 207 2 214 216
M  V30 208 1 216 208
M  V30 209 1 204 217
M  V30 210 1 204 218
M  V30 211 1 204 219
M  V30 212 1 206 220
M  V30 213 1 206 221
M  V30 214 1 206 222
M  V30 215 1 207 223
M  V30 216 1 207 224
M  V30 217 1 207 225
M  V30 218 1 209 226
M  V30 219 1 211 227
M  V30 220 1 213 228
M  V30 221 1 215 229
M  V30 222 1 216 230
M  V30 223 1 231 232
M  V30 224 1 232 233
M  V30 225 1 232 234
M  V30 226 1 232 235
M  V30 227 2 235 236
M  V30 228 1 236 237
M  V30 229 1 237 238
M  V30 230 2 237 239
M  V30 231 1 239 240
M  V30 232 1 239 241
M  V30 233 1 241 242
M  V30 234 2 241 243
M  V30 235 1 243 235
M  V30 236 1 231 244
M  V30 237 1 231 245
M  V30 238 1 231 246
M  V30 239 1 233 247
M  V30 240 1 233 248
M  V30 241 1 233 249
M  V30 242 1 234 250
M  V30 243 1 234 251
M  V30 244 1 234 252
M  V30 245 1 236 253
M  V30 246 1 238 254
M  V30 247 1 240 255
M  V30 248 1 242 256
M  V30 249 1 243 257
M  V30 250 1 258 259
M  V30 251 1 259 260
M  V30 252 1 259 261
M  V30 253 1 259 262
M  V30 254 2 262 263
M  V30 255 1 263 264
M  V30 256 1 264 265
M  V30 257 2 264 266
M  V30 258 1 266 267
M  V30 259 1 266 268
M  V30 260 1 268 269
M  V30 261 2 268 270
M  V30 262 1 270 262
M  V30 263 1 258 271
M  V30 264 1 258 272
M  V30 265 1 258 273
M  V30 266 1 260 274
M  V30 267 1 260 275
M  V30 268 1 260 276
M  V30 269 1 261 277
M  V30 270 1 261 278
M  V30 271 1 261 279
M  V30 272 1 263 280
M  V30 273 1 265 281
M  V30 274 1 267 282
M  V30 275 1 269 283
M  V30 276 1 270 284
M  V30 277 1 285 286
M  V30 278 1 286 287
M  V30 279 1 286 288
M  V30 280 1 286 289
M  V30 281 2 289 290
M  V30 282 1 290 291
M  V30 283 1 291 292
M  V30 284 2 291 293
M  V30 285 1 293 294
M  V30 286 1 293 295
M  V30 287 1 295 296
M  V30 288 2 295 297
M  V30 289 1 297 289
M  V30 290 1 285 298
M  V30 291 1 285 299
M  V30 292 1 285 300
M  V30 293 1 287 301
M  V30 294 1 287 302
M  V30 295 1 287 303
M  V30 296 1 288 304
M  V30 297 1 288 305
M  V30 298 1 288 306
M  V30 299 1 290 307
M  V30 300 1 292 308
M  V30 301 1 294 309
M  V30 302 1 296 310
M  V30 303 1 297 311
M  V30 304 1 312 313
M  V30 305 1 313 314
M  V30 306 1 313 315
M  V30 307 1 313 316
M  V30 308 2 316 317
M  V30 309 1 317 318
M  V30 310 1 318 319
M  V30 311 2 318 320
M  V30 312 1 320 321
M  V30 313 1 320 322
M  V30 314 1 322 323
M  V30 315 2 322 324
M  V30 316 1 324 316
M  V30 317 1 312 325
M  V30 318 1 312 326
M  V30 319 1 312 327
M  V30 320 1 314 328
M  V30 321 1 314 329
M  V30 322 1 314 330
M  V30 323 1 315 331
M  V30 324 1 315 332
M  V30 325 1 315 333
M  V30 326 1 317 334
M  V30 327 1 319 335
M  V30 328 1 321 336
M  V30 329 1 323 337
M  V30 330 1 324 338
M  V30 331 1 339 340
M  V30 332 1 340 341
M  V30 333 1 340 342
M  V30 334 1 340 343
M  V30 335 2 343 344
M  V30 336 1 344 345
M  V30 337 1 345 346
M  V30 338 2 345 347
M  V30 339 1 347 348
M  V30 340 1 347 349
M  V30 341 1 349 350
M  V30 342 2 349 351
M  V30 343 1 351 343
M  V30 344 1 339 352
M  V30 345 1 339 353
M  V30 346 1 339 354
M  V30 347 1 341 355
M  V30 348 1 341 356
M  V30 349 1 341 357
M  V30 350 1 342 358
M  V30 351 1 342 359
M  V30 352 1 342 360
M  V30 353 1 344 361
M  V30 354 1 346 362
M  V30 355 1 348 363
M  V30 356 1 350 364
M  V30 357 1 351 365
M  V30 358 1 366 367
M  V30 359 1 367 368
M  V30 360 1 367 369
M  V30 361 1 367 370
M  V30 362 2 370 371
M  V30 363 1 371 372
M  V30 364 1 372 373
M  V30 365 2 372 374
M  V30 366 1 374 375
M  V30 367 1 374 376
M  V30 368 1 376 377
M  V30 369 2 376 378
M  V30 370 1 378 370
M  V30 371 1 366 379
M  V30 372 1 366 380
M  V30 373 1 366 381
M  V30 374 1 368 382
M  V30 375 1 368 383
M  V30 376 1 368 384
M  V30 377 1 369 385
M  V30 378 1 369 386
M  V30 379 1 369 387
M  V30 380 1 371 388
M  V30 381 1 373 389
M  V30 382 1 375 390
M  V30 383 1 377 391
M  V30 384 1 378 392
M  V30 385 1 393 394
M  V30 386 1 394 395
M  V30 387 1 394 396
M  V30 388 1 394 397
M  V30 389 2 397 398
M  V30 390 1 398 399
M  V30 391 1 399 400
M  V30 392 2 399 401
M  V30 393 1 401 402
M  V30 394 1 401 403
M  V30 395 1 403 404
M  V30 396 2 403 405
M  V30 397 1 405 397
M  V30 398 1 393 406
M  V30 399 1 393 407
M  V30 400 1 393 408
M  V30 401 1 395 409
M  V30 402 1 395 410
M  V30 403 1 395 411
M  V30 404 1 396 412
M  V30 405 1 396 413
M  V30 406 1 396 414
M  V30 407 1 398 415
M  V30 408 1 400 416
M  V30 409 1 402 417
M  V30 410 1 404 418
M  V30 411 1 405 419
M  V30 412 1 420 421
M  V30 413 1 421 422
M  V30 414 1 421 423
M  V30 415 1 421 424
M  V30 416 2 424 425
M  V30 417 1 425 426
M  V30 418 1 426 427
M  V30 419 2 426 428
M  V30 420 1 428 429
M  V30 421 1 428 430
M  V30 422 1 430 431
M  V30 423 2 430 432
M  V30 424 1 432 424
M  V30 425 1 420 433
M  V30 426 1 420 434
M  V30 427 1 420 435
M  V30 428 1 422 436
M  V30 429 1 422 437
M  V30 430 1 422 438
M  V30 431 1 423 439
M  V30 432 1 423 440
M  V30 433 1 423 441
M  V30 434 1 425 442
M  V30 435 1 427 443
M  V30 436 1 429 444
M  V30 437 1 431 445
M  V30 438 1 432 446
M  V30 439 1 447 448
M  V30 440 1 448 449
M  V30 441 1 448 450
M  V30 442 1 448 451
M  V30 443 2 451 452
M  V30 444 1 452 453
M  V30 445 1 453 454
M  V30 446 2 453 455
M  V30 447 1 455 456
M  V30 448 1 455 457
M  V30 449 1 457 458
M  V30 450 2 457 459
M  V30 451 1 459 451
M  V30 452 1 447 460
M  V30 453 1 447 461
M  V30 454 1 447 462
M  V30 455 1 449 463
M  V30 456 1 449 464
M  V30 457 1 449 465
M  V30 458 1 450 466
M  V30 459 1 450 467
M  V30 460 1 450 468
M  V30 461 1 452 469
M  V30 462 1 454 470
M  V30 463 1 456 471
M  V30 464 1 458 472
M  V30 465 1 459 473
M  V30 466 1 474 475
M  V30 467 1 475 476
M  V30 468 1 475 477
M  V30 469 1 475 478
M  V30 470 2 478 479
M  V30 471 1 479 480
M  V30 472 1 480 481
M  V30 473 2 480 482
M  V30 474 1 482 483
M  V30 475 1 482 484
M  V30 476 1 484 485
M  V30 477 2 484 486
M  V30 478 1 486 478
M  V30 479 1 474 487
M  V30 480 1 474 488
M  V30 481 1 474 489
M  V30 482 1 476 490
M  V30 483 1 476 491
M  V30 484 1 476 492
M  V30 485 1 477 493
M  V30 486 1 477 494
M  V30 487 1 477 495
M  V30 488 1 479 496
M  V30 489 1 481 497
M  V30 490 1 483 498
M  V30 491 1 485 499
M  V30 492 1 486 500
M  V30 493 2 1 184
M  V30 494 2 45 188
M  V30 495 2 10 211
M  V30 496 2 23 215
M  V30 497 2 32 238
M  V30 498 2 67 242
M  V30 499 2 51 265
M  V30 500 2 76 269
M  V30 501 2 89 292
M  V30 502 2 133 296
M  V30 503 2 95 319
M  V30 504 2 111 323
M  V30 505 2 117 346
M  V30 506 2 155 350
M  V30 507 2 142 373
M  V30 508 2 161 377
M  V30 509 2 7 400
M  V30 510 2 98 404
M  V30 511 2 29 427
M  V30 512 2 120 431
M  V30 513 2 54 454
M  V30 514 2 139 458
M  V30 515 2 73 481
M  V30 516 2 164 485
M  V30 END BOND
M  V30 END CTAB
M  END

$$$$
