
     RDKit          3D

  0  0  0  0  0  0  0  0  0  0999 V3000
M  V30 BEGIN CTAB
M  V30 COUNTS 344 360 0 0 0
M  V30 BEGIN ATOM
M  V30 1 N -7.1515 11.7452 -11.7452 0
M  V30 2 C -7.9932 10.9567 -10.8239 0
M  V30 3 C -9.3169 10.8428 -11.4778 0
M  V30 4 N -10.3061 10.0535 -10.6993 0
M  V30 5 C -10.5932 10.8830 -9.5423 0
M  V30 6 C -11.6581 10.4376 -8.6230 0
M  V30 7 N -11.7337 11.4071 -7.5012 0
M  V30 8 C -11.4165 9.9092 -11.5822 0
M  V30 9 C -12.3797 8.8132 -11.3214 0
M  V30 10 N -11.7567 7.4897 -11.3955 0
M  V30 11 H -7.4647 10.0089 -10.6688 0
M  V30 12 H -8.0557 11.5888 -9.9181 0
M  V30 13 H -9.7572 11.8633 -11.5745 0
M  V30 14 H -9.3044 10.3936 -12.4728 0
M  V30 15 H -9.6601 10.9856 -8.9329 0
M  V30 16 H -10.7944 11.9122 -9.9673 0
M  V30 17 H -12.6425 10.6094 -9.1406 0
M  V30 18 H -11.5269 9.4616 -8.1850 0
M  V30 19 H -11.0825 9.8246 -12.6613 0
M  V30 20 H -12.0275 10.8717 -11.5596 0
M  V30 21 H -12.9784 8.8160 -10.4359 0
M  V30 22 H -13.1096 8.8370 -12.1897 0
M  V30 23 N -11.7452 -7.1515 -11.7452 0
M  V30 24 C -10.9567 -7.9932 -10.8239 0
M  V30 25 C -10.8428 -9.3169 -11.4778 0
M  V30 26 N -10.0535 -10.3061 -10.6993 0
M  V30 27 C -10.8830 -10.5932 -9.5423 0
M  V30 28 C -10.4376 -11.6581 -8.6230 0
M  V30 29 N -11.4071 -11.7337 -7.5012 0
M  V30 30 C -9.9092 -11.4165 -11.5822 0
M  V30 31 C -8.8132 -12.3797 -11.3214 0
M  V30 32 N -7.4897 -11.7567 -11.3955 0
M  V30 33 H -10.0089 -7.4647 -10.6688 0
M  V30 34 H -11.5888 -8.0557 -9.9181 0
M  V30 35 H -11.8633 -9.7572 -11.5745 0
M  V30 36 H -10.3936 -9.3044 -12.4728 0
M  V30 37 H -10.9856 -9.6601 -8.9329 0
M  V30 38 H -11.9122 -10.7944 -9.9673 0
M  V30 39 H -10.6094 -12.6425 -9.1406 0
M  V30 40 H -9.4616 -11.5269 -8.1850 0
M  V30 41 H -9.8246 -11.0825 -12.6613 0
M  V30 42 H -10.8717 -12.0275 -11.5596 0
M  V30 43 H -8.8160 -12.9784 -10.4359 0
M  V30 44 H -8.8370 -13.1096 -12.1897 0
M  V30 45 N 7.1515 11.7452 -11.7452 0
M  V30 46 C 7.9932 10.8239 -10.9567 0
M  V30 47 C 9.3169 11.4778 -10.8428 0
M  V30 48 N 10.3061 10.6993 -10.0535 0
M  V30 49 C 10.5932 9.5423 -10.8830 0
M  V30 50 C 11.6581 8.6230 -10.4376 0
M  V30 51 N 11.7337 7.5012 -11.4071 0
M  V30 52 C 11.4165 11.5822 -9.9092 0
M  V30 53 C 12.3797 11.3214 -8.8132 0
M  V30 54 N 11.7567 11.3955 -7.4897 0
M  V30 55 H 7.4647 10.6688 -10.0089 0
M  V30 56 H 8.0557 9.9181 -11.5888 0
M  V30 57 H 9.7572 11.5745 -11.8633 0
M  V30 58 H 9.3044 12.4728 -10.3936 0
M  V30 59 H 9.6601 8.9329 -10.9856 0
M  V30 60 H 10.7944 9.9673 -11.9122 0
M  V30 61 H 12.6425 9.1406 -10.6094 0
M  V30 62 H 11.5269 8.1850 -9.4616 0
M  V30 63 H 11.0825 12.6613 -9.8246 0
M  V30 64 H 12.0275 11.5596 -10.8717 0
M  V30 65 H 12.9784 10.4359 -8.8160 0
M  V30 66 H 13.1096 12.1897 -8.8370 0
M  V30 67 N 7.1515 -11.7452 -11.7452 0
M  V30 68 C 7.9932 -10.9567 -10.8239 0
M  V30 69 C 9.3169 -10.8428 -11.4778 0
M  V30 70 N 10.3061 -10.0535 -10.6993 0
M  V30 71 C 10.5932 -10.8830 -9.5423 0
M  V30 72 C 11.6581 -10.4376 -8.6230 0
M  V30 73 N 11.7337 -11.4071 -7.5012 0
M  V30 74 C 11.4165 -9.9092 -11.5822 0
M  V30 75 C 12.3797 -8.8132 -11.3214 0
M  V30 76 N 11.7567 -7.4897 -11.3955 0
M  V30 77 H 7.4647 -10.0089 -10.6688 0
M  V30 78 H 8.0557 -11.5888 -9.9181 0
M  V30 79 H 9.7572 -11.8633 -11.5745 0
M  V30 80 H 9.3044 -10.3936 -12.4728 0
M  V30 81 H 9.6601 -10.9856 -8.9329 0
M  V30 82 H 10.7944 -11.9122 -9.9673 0
M  V30 83 H 12.6425 -10.6094 -9.1406 0
M  V30 84 H 11.5269 -9.4616 -8.1850 0
M  V30 85 H 11.0825 -9.8246 -12.6613 0
M  V30 86 H 12.0275 -10.8717 -11.5596 0
M  V30 87 H 12.9784 -8.8160 -10.4359 0
M  V30 88 H 13.1096 -8.8370 -12.1897 0
M  V30 89 N -7.1515 11.7452 11.7452 0
M  V30 90 C -7.9932 10.8239 10.9567 0
M  V30 91 C -9.3169 11.4778 10.8428 0
M  V30 92 N -10.3061 10.6993 10.0535 0
M  V30 93 C -10.5932 9.5423 10.8830 0
M  V30 94 C -11.6581 8.6230 10.4376 0
M  V30 95 N -11.7337 7.5012 11.4071 0
M  V30 96 C -11.4165 11.5822 9.9092 0
M  V30 97 C -12.3797 11.3214 8.8132 0
M  V30 98 N -11.7567 11.3955 7.4897 0
M  V30 99 H -7.4647 10.6688 10.0089 0
M  V30 100 H -8.0557 9.9181 11.5888 0
M  V30 101 H -9.7572 11.5745 11.8633 0
M  V30 102 H -9.3044 12.4728 10.3936 0
M  V30 103 H -9.6601 8.9329 10.9856 0
M  V30 104 H -10.7944 9.9673 11.9122 0
M  V30 105 H -12.6425 9.1406 10.6094 0
M  V30 106 H -11.5269 8.1850 9.4616 0
M  V30 107 H -11.0825 12.6613 9.8246 0
M  V30 108 H -12.0275 11.5596 10.8717 0
M  V30 109 H -12.9784 10.4359 8.8160 0
M  V30 110 H -13.1096 12.1897 8.8370 0
M  V30 111 N -11.7452 -7.1515 11.7452 0
M  V30 112 C -10.8239 -7.9932 10.9567 0
M  V30 113 C -11.4778 -9.3169 10.8428 0
M  V30 114 N -10.6993 -10.3061 10.0535 0
M  V30 115 C -9.5423 -10.5932 10.8830 0
M  V30 116 C -8.6230 -11.6581 10.4376 0
M  V30 117 N -7.5012 -11.7337 11.4071 0
M  V30 118 C -11.5822 -11.4165 9.9092 0
M  V30 119 C -11.3214 -12.3797 8.8132 0
M  V30 120 N -11.3955 -11.7567 7.4897 0
M  V30 121 H -10.6688 -7.4647 10.0089 0
M  V30 122 H -9.9181 -8.0557 11.5888 0
M  V30 123 H -11.5745 -9.7572 11.8633 0
M  V30 124 H -12.4728 -9.3044 10.3936 0
M  V30 125 H -8.9329 -9.6601 10.9856 0
M  V30 126 H -9.9673 -10.7944 11.9122 0
M  V30 127 H -9.1406 -12.6425 10.6094 0
M  V30 128 H -8.1850 -11.5269 9.4616 0
M  V30 129 H -12.6613 -11.0825 9.8246 0
M  V30 130 H -11.5596 -12.0275 10.8717 0
M  V30 131 H -10.4359 -12.9784 8.8160 0
M  V30 132 H -12.1897 -13.1096 8.8370 0
M  V30 133 N 7.1515 11.7452 11.7452 0
M  V30 134 C 7.9932 10.9567 10.8239 0
M  V30 135 C 9.3169 10.8428 11.4778 0
M  V30 136 N 10.3061 10.0535 10.6993 0
M  V30 137 C 10.5932 10.8830 9.5423 0
M  V30 138 C 11.6581 10.4376 8.6230 0
M  V30 139 N 11.7337 11.4071 7.5012 0
M  V30 140 C 11.4165 9.9092 11.5822 0
M  V30 141 C 12.3797 8.8132 11.3214 0
M  V30 142 N 11.7567 7.4897 11.3955 0
M  V30 143 H 7.4647 10.0089 10.6688 0
M  V30 144 H 8.0557 11.5888 9.9181 0
M  V30 145 H 9.7572 11.8633 11.5745 0
M  V30 146 H 9.3044 10.3936 12.4728 0
M  V30 147 H 9.6601 10.9856 8.9329 0
M  V30 148 H 10.7944 11.9122 9.9673 0
M  V30 149 H 12.6425 10.6094 9.1406 0
M  V30 150 H 11.5269 9.4616 8.1850 0
M  V30 151 H 11.0825 9.8246 12.6613 0
M  V30 152 H 12.0275 10.8717 11.5596 0
M  V30 153 H 12.9784 8.8160 10.4359 0
M  V30 154 H 13.1096 8.8370 12.1897 0
M  V30 155 N 7.1515 -11.7452 11.7452 0
M  V30 156 C 7.9932 -10.8239 10.9567 0
M  V30 157 C 9.3169 -11.4778 10.8428 0
M  V30 158 N 10.3061 -10.6993 10.0535 0
M  V30 159 C 10.5932 -9.5423 10.8830 0
M  V30 160 C 11.6581 -8.6230 10.4376 0
M  V30 161 N 11.7337 -7.5012 11.4071 0
M  V30 162 C 11.4165 -11.5822 9.9092 0
M  V30 163 C 12.3797 -11.3214 8.8132 0
M  V30 164 N 11.7567 -11.3955 7.4897 0
M  V30 165 H 7.4647 -10.6688 10.0089 0
M  V30 166 H 8.0557 -9.9181 11.5888 0
M  V30 167 H 9.7572 -11.5745 11.8633 0
M  V30 168 H 9.3044 -12.4728 10.3936 0
M  V30 169 H 9.6601 -8.9329 10.9856 0
M  V30 170 H 10.7944 -9.9673 11.9122 0
M  V30 171 H 12.6425 -9.1406 10.6094 0
M  V30 172 H 11.5269 -8.1850 9.4616 0
M  V30 173 H 11.0825 -12.6613 9.8246 0
M  V30 174 H 12.0275 -11.5596 10.8717 0
M  V30 175 H 12.9784 -10.4359 8.8160 0
M  V30 176 H 13.1096 -12.1897 8.8370 0
M  V30 177 C -2.8779 11.7452 -11.7452 0
M  V30 178 C -1.4122 11.7585 -11.7463 0
M  V30 179 C -0.6931 12.9308 -11.8372 0
M  V30 180 F -1.4069 14.0957 -11.9276 0
M  V30 181 C 0.6861 12.9214 -11.8365 0
M  V30 182 F 1.3867 14.0782 -11.9262 0
M  V30 183 C 1.4183 11.7552 -11.7460 0
M  V30 184 C 2.8779 11.7452 -11.7452 0
M  V30 185 C 0.6996 10.5794 -11.6548 0
M  V30 186 F 1.3877 9.3980 -11.5631 0
M  V30 187 C -0.6859 10.5900 -11.6556 0
M  V30 188 F -1.3967 9.4378 -11.5662 0
M  V30 189 H -3.4661 11.8084 -10.8622 0
M  V30 190 H 3.4190 11.6675 -12.6993 0
M  V30 191 C -11.7510 3.0469 -11.5704 0
M  V30 192 C -11.7521 1.5813 -11.5837 0
M  V30 193 C -11.8522 0.8622 -12.7552 0
M  V30 194 F -11.9516 1.5760 -13.9194 0
M  V30 195 C -11.8514 -0.5170 -12.7458 0
M  V30 196 F -11.9501 -1.2176 -13.9019 0
M  V30 197 C -11.7518 -1.2492 -11.5804 0
M  V30 198 C -11.7510 -2.7088 -11.5704 0
M  V30 199 C -11.6515 -0.5305 -10.4053 0
M  V30 200 F -11.5507 -1.2186 -9.2247 0
M  V30 201 C -11.6524 0.8550 -10.4159 0
M  V30 202 F -11.5541 1.5658 -9.2644 0
M  V30 203 H -10.8684 3.6352 -11.6404 0
M  V30 204 H -12.7044 -3.2499 -11.4853 0
M  V30 205 C -3.0469 -11.7510 -11.5704 0
M  V30 206 C -1.5813 -11.7521 -11.5837 0
M  V30 207 C -0.8622 -11.8522 -12.7552 0
M  V30 208 F -1.5760 -11.9516 -13.9194 0
M  V30 209 C 0.5170 -11.8514 -12.7458 0
M  V30 210 F 1.2176 -11.9501 -13.9019 0
M  V30 211 C 1.2492 -11.7518 -11.5804 0
M  V30 212 C 2.7088 -11.7510 -11.5704 0
M  V30 213 C 0.5305 -11.6515 -10.4053 0
M  V30 214 F 1.2186 -11.5507 -9.2247 0
M  V30 215 C -0.8550 -11.6524 -10.4159 0
M  V30 216 F -1.5658 -11.5541 -9.2644 0
M  V30 217 H -3.6352 -10.8684 -11.6404 0
M  V30 218 H 3.2499 -12.7044 -11.4853 0
M  V30 219 C 11.7452 2.8836 -11.4013 0
M  V30 220 C 11.7585 1.4180 -11.4021 0
M  V30 221 C 12.9320 0.6989 -11.4757 0
M  V30 222 F 14.0982 1.4127 -11.5488 0
M  V30 223 C 12.9226 -0.6803 -11.4751 0
M  V30 224 F 14.0807 -1.3809 -11.5476 0
M  V30 225 C 11.7552 -1.4125 -11.4019 0
M  V30 226 C 11.7452 -2.8721 -11.4013 0
M  V30 227 C 10.5782 -0.6938 -11.3282 0
M  V30 228 F 9.3956 -1.3819 -11.2541 0
M  V30 229 C 10.5888 0.6917 -11.3289 0
M  V30 230 F 9.4354 1.4025 -11.2566 0
M  V30 231 H 11.7952 3.4719 -10.5174 0
M  V30 232 H 11.6817 -3.4132 -12.3564 0
M  V30 233 C -2.8779 11.7452 11.7452 0
M  V30 234 C -1.4122 11.7463 11.7585 0
M  V30 235 C -0.6931 11.8372 12.9308 0
M  V30 236 F -1.4069 11.9276 14.0957 0
M  V30 237 C 0.6861 11.8365 12.9214 0
M  V30 238 F 1.3867 11.9262 14.0782 0
M  V30 239 C 1.4183 11.7460 11.7552 0
M  V30 240 C 2.8779 11.7452 11.7452 0
M  V30 241 C 0.6996 11.6548 10.5794 0
M  V30 242 F 1.3877 11.5631 9.3980 0
M  V30 243 C -0.6859 11.6556 10.5900 0
M  V30 244 F -1.3967 11.5662 9.4378 0
M  V30 245 H -3.4661 10.8622 11.8084 0
M  V30 246 H 3.4190 12.6993 11.6675 0
M  V30 247 C -11.7395 3.0527 11.5761 0
M  V30 248 C -11.7528 1.5871 11.5771 0
M  V30 249 C -12.9257 0.8680 11.6598 0
M  V30 250 F -14.0912 1.5818 11.7421 0
M  V30 251 C -12.9162 -0.5113 11.6592 0
M  V30 252 F -14.0737 -1.2119 11.7408 0
M  V30 253 C -11.7495 -1.2435 11.5769 0
M  V30 254 C -11.7395 -2.7030 11.5761 0
M  V30 255 C -10.5731 -0.5248 11.4939 0
M  V30 256 F -9.3910 -1.2128 11.4105 0
M  V30 257 C -10.5836 0.8607 11.4946 0
M  V30 258 F -9.4308 1.5715 11.4133 0
M  V30 259 H -11.7964 3.6410 10.6927 0
M  V30 260 H -11.6684 -3.2442 12.5308 0
M  V30 261 C -3.0527 -11.7395 11.5761 0
M  V30 262 C -1.5871 -11.7528 11.5771 0
M  V30 263 C -0.8680 -12.9257 11.6598 0
M  V30 264 F -1.5818 -14.0912 11.7421 0
M  V30 265 C 0.5113 -12.9162 11.6592 0
M  V30 266 F 1.2119 -14.0737 11.7408 0
M  V30 267 C 1.2435 -11.7495 11.5769 0
M  V30 268 C 2.7030 -11.7395 11.5761 0
M  V30 269 C 0.5248 -10.5731 11.4939 0
M  V30 270 F 1.2128 -9.3910 11.4105 0
M  V30 271 C -0.8607 -10.5836 11.4946 0
M  V30 272 F -1.5715 -9.4308 11.4133 0
M  V30 273 H -3.6410 -11.7964 10.6927 0
M  V30 274 H 3.2442 -11.6684 12.5308 0
M  V30 275 C 11.7452 2.8721 11.4013 0
M  V30 276 C 11.7465 1.4065 11.4146 0
M  V30 277 C 11.8548 0.6874 12.5854 0
M  V30 278 F 11.9625 1.4012 13.7488 0
M  V30 279 C 11.8540 -0.6919 12.5760 0
M  V30 280 F 11.9609 -1.3925 13.7314 0
M  V30 281 C 11.7462 -1.4241 11.4113 0
M  V30 282 C 11.7452 -2.8836 11.4013 0
M  V30 283 C 11.6375 -0.7054 10.2370 0
M  V30 284 F 11.5283 -1.3934 9.0571 0
M  V30 285 C 11.6384 0.6801 10.2475 0
M  V30 286 F 11.5319 1.3909 9.0968 0
M  V30 287 H 10.8632 3.4604 11.4776 0
M  V30 288 H 12.6980 -3.4248 11.3094 0
M  V30 289 C -11.7452 11.4013 -2.8836 0
M  V30 290 C -11.7585 11.4021 -1.4180 0
M  V30 291 C -12.9320 11.4757 -0.6989 0
M  V30 292 F -14.0982 11.5488 -1.4127 0
M  V30 293 C -12.9226 11.4751 0.6803 0
M  V30 294 F -14.0807 11.5476 1.3809 0
M  V30 295 C -11.7552 11.4019 1.4125 0
M  V30 296 C -11.7452 11.4013 2.8721 0
M  V30 297 C -10.5782 11.3282 0.6938 0
M  V30 298 F -9.3956 11.2541 1.3819 0
M  V30 299 C -10.5888 11.3289 -0.6917 0
M  V30 300 F -9.4354 11.2566 -1.4025 0
M  V30 301 H -11.7952 10.5174 -3.4719 0
M  V30 302 H -11.6817 12.3564 3.4132 0
M  V30 303 C -11.4013 -11.7452 -2.8836 0
M  V30 304 C -11.4021 -11.7585 -1.4180 0
M  V30 305 C -11.4757 -12.9320 -0.6989 0
M  V30 306 F -11.5488 -14.0982 -1.4127 0
M  V30 307 C -11.4751 -12.9226 0.6803 0
M  V30 308 F -11.5476 -14.0807 1.3809 0
M  V30 309 C -11.4019 -11.7552 1.4125 0
M  V30 310 C -11.4013 -11.7452 2.8721 0
M  V30 311 C -11.3282 -10.5782 0.6938 0
M  V30 312 F -11.2541 -9.3956 1.3819 0
M  V30 313 C -11.3289 -10.5888 -0.6917 0
M  V30 314 F -11.2566 -9.4354 -1.4025 0
M  V30 315 H -10.5174 -11.7952 -3.4719 0
M  V30 316 H -12.3564 -11.6817 3.4132 0
M  V30 317 C 11.7452 11.4013 -2.8721 0
M  V30 318 C 11.7465 11.4146 -1.4065 0
M  V30 319 C 11.8548 12.5854 -0.6874 0
M  V30 320 F 11.9625 13.7488 -1.4012 0
M  V30 321 C 11.8540 12.5760 0.6919 0
M  V30 322 F 11.9609 13.7314 1.3925 0
M  V30 323 C 11.7462 11.4113 1.4241 0
M  V30 324 C 11.7452 11.4013 2.8836 0
M  V30 325 C 11.6375 10.2370 0.7054 0
M  V30 326 F 11.5283 9.0571 1.3934 0
M  V30 327 C 11.6384 10.2475 -0.6801 0
M  V30 328 F 11.5319 9.0968 -1.3909 0
M  V30 329 H 10.8632 11.4776 -3.4604 0
M  V30 330 H 12.6980 11.3094 3.4248 0
M  V30 331 C 11.7452 -11.4013 -2.8836 0
M  V30 332 C 11.7585 -11.4021 -1.4180 0
M  V30 333 C 12.9320 -11.4757 -0.6989 0
M  V30 334 F 14.0982 -11.5488 -1.4127 0
M  V30 335 C 12.9226 -11.4751 0.6803 0
M  V30 336 F 14.0807 -11.5476 1.3809 0
M  V30 337 C 11.7552 -11.4019 1.4125 0
M  V30 338 C 11.7452 -11.4013 2.8721 0
M  V30 339 C 10.5782 -11.3282 0.6938 0
M  V30 340 F 9.3956 -11.2541 1.3819 0
M  V30 341 C 10.5888 -11.3289 -0.6917 0
M  V30 342 F 9.4354 -11.2566 -1.4025 0
M  V30 343 H 11.7952 -10.5174 -3.4719 0
M  V30 344 H 11.6817 -12.3564 3.4132 0
M  V30 END ATOM
M  V30 BEGIN BOND
M  V30 1 1 1 2
M  V30 2 1 2 3
M  V30 3 1 3 4
M  V30 4 1 4 5
M  V30 5 1 5 6
M  V30 6 1 6 7
M  V30 7 1 4 8
M  V30 8 1 8 9
M  V30 9 1 9 10
M  V30 10 1 2 11
M  V30 11 1 2 12
M  V30 12 1 3 13
M  V30 13 1 3 14
M  V30 14 1 5 15
M  V30 15 1 5 16
M  V30 16 1 6 17
M  V30 17 1 6 18
M  V30 18 1 8 19
M  V30 19 1 8 20
M  V30 20 1 9 21
M  V30 21 1 9 22
M  V30 22 1 23 24
M  V30 23 1 24 25
M  V30 24 1 25 26
M  V30 25 1 26 27
M  V30 26 1 27 28
M  V30 27 1 28 29
M  V30 28 1 26 30
M  V30 29 1 30 31
M  V30 30 1 31 32
M  V30 31 1 24 33
M  V30 32 1 24 34
M  V30 33 1 25 35
M  V30 34 1 25 36
M  V30 35 1 27 37
M  V30 36 1 27 38
M  V30 37 1 28 39
M  V30 38 1 28 40
M  V30 39 1 30 41
M  V30 40 1 30 42
M  V30 41 1 31 43
M  V30 42 1 31 44
M  V30 43 1 45 46
M  V30 44 1 46 47
M  V30 45 1 47 48
M  V30 46 1 48 49
M  V30 47 1 49 50
M  V30 48 1 50 51
M  V30 49 1 48 52
M  V30 50 1 52 53
M  V30 51 1 53 54
M  V30 52 1 46 55
M  V30 53 1 46 56
M  V30 54 1 47 57
M  V30 55 1 47 58
M  V30 56 1 49 59
M  V30 57 1 49 60
M  V30 58 1 50 61
M  V30 59 1 50 62
M  V30 60 1 52 63
M  V30 61 1 52 64
M  V30 62 1 53 65
M  V30 63 1 53 66
M  V30 64 1 67 68
M  V30 65 1 68 69
M  V30 66 1 69 70
M  V30 67 1 70 71
M  V30 68 1 71 72
M  V30 69 1 72 73
M  V30 70 1 70 74
M  V30 71 1 74 75
M  V30 72 1 75 76
M  V30 73 1 68 77
M  V30 74 1 68 78
M  V30 75 1 69 79
M  V30 76 1 69 80
M  V30 77 1 71 81
M  V30 78 1 71 82
M  V30 79 1 72 83
M  V30 80 1 72 84
M  V30 81 1 74 85
M  V30 82 1 74 86
M  V30 83 1 75 87
M  V30 84 1 75 88
M  V30 85 1 89 90
M  V30 86 1 90 91
M  V30 87 1 91 92
M  V30 88 1 92 93
M  V30 89 1 93 94
M  V30 90 1 94 95
M  V30 91 1 92 96
M  V30 92 1 96 97
M  V30 93 1 97 98
M  V30 94 1 90 99
M  V30 95 1 90 100
M  V30 96 1 91 101
M  V30 97 1 91 102
M  V30 98 1 93 103
M  V30 99 1 93 104
M  V30 100 1 94 105
M  V30 101 1 94 106
M  V30 102 1 96 107
M  V30 103 1 96 108
M  V30 104 1 97 109
M  V30 105 1 97 110
M  V30 106 1 111 112
M  V30 107 1 112 113
M  V30 108 1 113 114
M  V30 109 1 114 115
M  V30 110 1 115 116
M  V30 111 1 116 117
M  V30 112 1 114 118
M  V30 113 1 118 119
M  V30 114 1 119 120
M  V30 115 1 112 121
M  V30 116 1 112 122
M  V30 117 1 113 123
M  V30 118 1 113 124
M  V30 119 1 115 125
M  V30 120 1 115 126
M  V30 121 1 116 127
M  V30 122 1 116 128
M  V30 123 1 118 129
M  V30 124 1 118 130
M  V30 125 1 119 131
M  V30 126 1 119 132
M  V30 127 1 133 134
M  V30 128 1 134 135
M  V30 129 1 135 136
M  V30 130 1 136 137
M  V30 131 1 137 138
M  V30 132 1 138 139
M  V30 133 1 136 140
M  V30 134 1 140 141
M  V30 135 1 141 142
M  V30 136 1 134 143
M  V30 137 1 134 144
M  V30 138 1 135 145
M  V30 139 1 135 146
M  V30 140 1 137 147
M  V30 141 1 137 148
M  V30 142 1 138 149
M  V30 143 1 138 150
M  V30 144 1 140 151
M  V30 145 1 140 152
M  V30 146 1 141 153
M  V30 147 1 141 154
M  V30 148 1 155 156
M  V30 149 1 156 157
M  V30 150 1 157 158
M  V30 151 1 158 159
M  V30 152 1 159 160
M  V30 153 1 160 161
M  V30 154 1 158 162
M  V30 155 1 162 163
M  V30 156 1 163 164
M  V30 157 1 156 165
M  V30 158 1 156 166
M  V30 159 1 157 167
M  V30 160 1 157 168
M  V30 161 1 159 169
M  V30 162 1 159 170
M  V30 163 1 160 171
M  V30 164 1 160 172
M  V30 165 1 162 173
M  V30 166 1 162 174
M  V30 167 1 163 175
M  V30 168 1 163 176
M  V30 169 1 177 178
M  V30 170 2 178 179
M  V30 171 1 179 180
M  V30 172 1 179 181
M  V30 173 1 181 182
M  V30 174 2 181 183
M  V30 175 1 183 184
M  V30 176 1 183 185
M  V30 177 1 185 186
M  V30 178 2 185 187
M  V30 179 1 187 188
M  V30 180 1 187 178
M  V30 181 1 177 189
M  V30 182 1 184 190
M  V30 183 1 191 192
M  V30 184 2 192 193
M  V30 185 1 193 194
M  V30 186 1 193 195
M  V30 187 1 195 196
M  V30 188 2 195 197
M  V30 189 1 197 198
M  V30 190 1 197 199
M  V30 191 1 199 200
M  V30 192 2 199 201
M  V30 193 1 201 202
M  V30 194 1 201 192
M  V30 195 1 191 203
M  V30 196 1 198 204
M  V30 197 1 205 206
M  V30 198 2 206 207
M  V30 199 1 207 208
M  V30 200 1 207 209
M  V30 201 1 209 210
M  V30 202 2 209 211
M  V30 203 1 211 212
M  V30 204 1 211 213
M  V30 205 1 213 214
M  V30 206 2 213 215
M  V30 207 1 215 216
M  V30 208 1 215 206
M  V30 209 1 205 217
M  V30 210 1 212 218
M  V30 211 1 219 220
M  V30 212 2 220 221
M  V30 213 1 221 222
M  V30 214 1 221 223
M  V30 215 1 223 224
M  V30 216 2 223 225
M  V30 217 1 225 226
M  V30 218 1 225 227
M  V30 219 1 227 228
M  V30 220 2 227 229
M  V30 221 1 229 230
M  V30 222 1 229 220
M  V30 223 1 219 231
M  V30 224 1 226 232
M  V30 225 1 233 234
M  V30 226 2 234 235
M  V30 227 1 235 236
M  V30 228 1 235 237
M  V30 229 1 237 238
M  V30 230 2 237 239
M  V30 231 1 239 240
M  V30 232 1 239 241
M  V30 233 1 241 242
M  V30 234 2 241 243
M  V30 235 1 243 244
M  V30 236 1 243 234
M  V30 237 1 233 245
M  V30 238 1 240 246
M  V30 239 1 247 248
M  V30 240 2 248 249
M  V30 241 1 249 250
M  V30 242 1 249 251
M  V30 243 1 251 252
M  V30 244 2 251 253
M  V30 245 1 253 254
M  V30 246 1 253 255
M  V30 247 1 255 256
M  V30 248 2 255 257
M  V30 249 1 257 258
M  V30 250 1 257 248
M  V30 251 1 247 259
M  V30 252 1 254 260
M  V30 253 1 261 262
M  V30 254 2 262 263
M  V30 255 1 263 264
M  V30 256 1 263 265
M  V30 257 1 265 266
M  V30 258 2 265 267
M  V30 259 1 267 268
M  V30 260 1 267 269
M  V30 261 1 269 270
M  V30 262 2 269 271
M  V30 263 1 271 272
M  V30 264 1 271 262
M  V30 265 1 261 273
M  V30 266 1 268 274
M  V30 267 1 275 276
M  V30 268 2 276 277
M  V30 269 1 277 278
M  V30 270 1 277 279
M  V30 271 1 279 280
M  V30 272 2 279 281
M  V30 273 1 281 282
M  V30 274 1 281 283
M  V30 275 1 283 284
M  V30 276 2 283 285
M  V30 277 1 285 286
M  V30 278 1 285 276
M  V30 279 1 275 287
M  V30 280 1 282 288
M  V30 281 1 289 290
M  V30 282 2 290 291
M  V30 283 1 291 292
M  V30 284 1 291 293
M  V30 285 1 293 294
M  V30 286 2 293 295
M  V30 287 1 295 296
M  V30 288 1 295 297
M  V30 289 1 297 298
M  V30 290 2 297 299
M  V30 291 1 299 300
M  V30 292 1 299 290
M  V30 293 1 289 301
M  V30 294 1 296 302
M  V30 295 1 303 304
M  V30 296 2 304 305
M  V30 297 1 305 306
M  V30 298 1 305 307
M  V30 299 1 307 308
M  V30 300 2 307 309
M  V30 301 1 309 310
M  V30 302 1 309 311
M  V30 303 1 311 312
M  V30 304 2 311 313
M  V30 305 1 313 314
M  V30 306 1 313 304
M  V30 307 1 303 315
M  V30 308 1 310 316
M  V30 309 1 317 318
M  V30 310 2 318 319
M  V30 311 1 319 320
M  V30 312 1 319 321
M  V30 313 1 321 322
M  V30 314 2 321 323
M  V30 315 1 323 324
M  V30 316 1 323 325
M  V30 317 1 325 326
M  V30 318 2 325 327
M  V30 319 1 327 328
M  V30 320 1 327 318
M  V30 321 1 317 329
M  V30 322 1 324 330
M  V30 323 1 331 332
M  V30 324 2 332 333
M  V30 325 1 333 334
M  V30 326 1 333 335
M  V30 327 1 335 336
M  V30 328 2 335 337
M  V30 329 1 337 338
M  V30 330 1 337 339
M  V30 331 1 339 340
M  V30 332 2 339 341
M  V30 333 1 341 342
M  V30 334 1 341 332
M  V30 335 1 331 343
M  V30 336 1 338 344
M  V30 337 2 1 177
M  V30 338 2 45 184
M  V30 339 2 10 191
M  V30 340 2 23 198
M  V30 341 2 32 205
M  V30 342 2 67 212
M  V30 343 2 51 219
M  V30 344 2 76 226
M  V30 345 2 89 233
M  V30 346 2 133 240
M  V30 347 2 95 247
M  V30 348 2 111 254
M  V30 349 2 117 261
M  V30 350 2 155 268
M  V30 351 2 142 275
M  V30 352 2 161 282
M  V30 353 2 7 289
M  V30 354 2 98 296
M  V30 355 2 29 303
M  V30 356 2 120 310
M  V30 357 2 54 317
M  V30 358 2 139 324
M  V30 359 2 73 331
M  V30 360 2 164 338
M  V30 END BOND
M  V30 END CTAB
M  END

$$$$
