
     RDKit          3D

  0  0  0  0  0  0  0  0  0  0999 V3000
M  V30 BEGIN CTAB
M  V30 COUNTS 172 180 0 0 0
M  V30 BEGIN ATOM
M  V30 1 N -3.2482 -1.8754 12.5095 0
M  V30 2 C -2.0955 -1.1014 12.0083 0
M  V30 3 C -1.0790 -1.1415 13.0843 0
M  V30 4 N 0.1786 -0.4241 12.7502 0
M  V30 5 C -0.2049 0.9763 12.7269 0
M  V30 6 C 0.8630 1.9799 12.5538 0
M  V30 7 N 0.2310 3.3225 12.5095 0
M  V30 8 C 1.0658 -0.7507 13.8177 0
M  V30 9 C 2.5219 -0.5919 13.5905 0
M  V30 10 N 3.0173 -1.4471 12.5095 0
M  V30 11 H -1.7990 -1.5775 11.0665 0
M  V30 12 H -2.4983 -0.0782 11.8864 0
M  V30 13 H -1.4892 -0.6240 13.9835 0
M  V30 14 H -0.7702 -2.1423 13.3922 0
M  V30 15 H -0.9373 1.1349 11.8956 0
M  V30 16 H -0.7904 1.1317 13.6827 0
M  V30 17 H 1.4376 2.0293 13.5202 0
M  V30 18 H 1.4604 1.8855 11.6617 0
M  V30 19 H 0.8895 -1.8026 14.1991 0
M  V30 20 H 0.8173 -0.0898 14.7132 0
M  V30 21 H 2.9432 0.3766 13.4266 0
M  V30 22 H 3.0212 -0.9932 14.5270 0
M  V30 23 N -11.2967 -6.5222 -0.6336 0
M  V30 24 C -10.4407 -6.1364 -1.7726 0
M  V30 25 C -11.3423 -6.0300 -2.9424 0
M  V30 26 N -10.6554 -5.6247 -4.1959 0
M  V30 27 C -9.8278 -6.7687 -4.5352 0
M  V30 28 C -9.1071 -6.7396 -5.8226 0
M  V30 29 N -8.2957 -7.9787 -5.9247 0
M  V30 30 C -11.7156 -5.3979 -5.1223 0
M  V30 31 C -11.4384 -4.5560 -6.3103 0
M  V30 32 N -11.0495 -3.1903 -5.9513 0
M  V30 33 H -9.9465 -5.2038 -1.4763 0
M  V30 34 H -9.7503 -6.9936 -1.8854 0
M  V30 35 H -11.7777 -7.0357 -3.1511 0
M  V30 36 H -12.1716 -5.3296 -2.8253 0
M  V30 37 H -9.0575 -6.9054 -3.7349 0
M  V30 38 H -10.5185 -7.6608 -4.4490 0
M  V30 39 H -9.8676 -6.8963 -6.6371 0
M  V30 40 H -8.4331 -5.9112 -5.9685 0
M  V30 41 H -12.6342 -4.9782 -4.6095 0
M  V30 42 H -12.0651 -6.4041 -5.5293 0
M  V30 43 H -10.7453 -4.8812 -7.0562 0
M  V30 44 H -12.4347 -4.4416 -6.8409 0
M  V30 45 N 11.2967 -6.5222 -0.6336 0
M  V30 46 C 10.5346 -5.9737 -1.7726 0
M  V30 47 C 10.8933 -6.8078 -2.9424 0
M  V30 48 N 10.1988 -6.4155 -4.1959 0
M  V30 49 C 10.7758 -5.1267 -4.5352 0
M  V30 50 C 10.3902 -4.5172 -5.8226 0
M  V30 51 N 11.0576 -3.1950 -5.9247 0
M  V30 52 C 10.5325 -7.4470 -5.1223 0
M  V30 53 C 9.6648 -7.6279 -6.3103 0
M  V30 54 N 8.2876 -7.9740 -5.9513 0
M  V30 55 H 9.4799 -6.0120 -1.4763 0
M  V30 56 H 10.9318 -4.9473 -1.8854 0
M  V30 57 H 11.9819 -6.6820 -3.1511 0
M  V30 58 H 10.7014 -7.8761 -2.8253 0
M  V30 59 H 10.5089 -4.3913 -3.7349 0
M  V30 60 H 11.8937 -5.2788 -4.4490 0
M  V30 61 H 10.9062 -5.0974 -6.6371 0
M  V30 62 H 9.3358 -4.3477 -5.9685 0
M  V30 63 H 10.6284 -8.4524 -4.6095 0
M  V30 64 H 11.5787 -7.2467 -5.5293 0
M  V30 65 H 9.5999 -6.8651 -7.0562 0
M  V30 66 H 10.0639 -8.5479 -6.8409 0
M  V30 67 N 0.0000 13.0443 -0.6336 0
M  V30 68 C -0.0939 12.1101 -1.7726 0
M  V30 69 C 0.4491 12.8377 -2.9424 0
M  V30 70 N 0.4566 12.0402 -4.1959 0
M  V30 71 C -0.9480 11.8955 -4.5352 0
M  V30 72 C -1.2831 11.2567 -5.8226 0
M  V30 73 N -2.7619 11.1737 -5.9247 0
M  V30 74 C 1.1830 12.8449 -5.1223 0
M  V30 75 C 1.7735 12.1839 -6.3103 0
M  V30 76 N 2.7619 11.1643 -5.9513 0
M  V30 77 H 0.4666 11.2158 -1.4763 0
M  V30 78 H -1.1814 11.9408 -1.8854 0
M  V30 79 H -0.2042 13.7177 -3.1511 0
M  V30 80 H 1.4702 13.2057 -2.8253 0
M  V30 81 H -1.4515 11.2967 -3.7349 0
M  V30 82 H -1.3752 12.9397 -4.4490 0
M  V30 83 H -1.0386 11.9938 -6.6371 0
M  V30 84 H -0.9027 10.2589 -5.9685 0
M  V30 85 H 2.0058 13.4307 -4.6095 0
M  V30 86 H 0.4864 13.6508 -5.5293 0
M  V30 87 H 1.1455 11.7463 -7.0562 0
M  V30 88 H 2.3708 12.9896 -6.8409 0
M  V30 89 C -5.8378 -3.3705 8.2807 0
M  V30 90 C -6.5629 -3.7891 7.0972 0
M  V30 91 C -7.7533 -4.4763 7.1845 0
M  V30 92 C -8.4510 -4.8791 6.0492 0
M  V30 93 C -7.9781 -4.6062 4.7823 0
M  V30 94 C -8.7071 -5.0271 3.5952 0
M  V30 95 C -6.7807 -3.9149 4.6964 0
M  V30 96 C -6.0888 -3.5155 5.8219 0
M  V30 97 H -6.2505 -3.6087 9.2411 0
M  V30 98 H -8.1454 -4.7027 8.1614 0
M  V30 99 H -9.3917 -5.4222 6.1209 0
M  V30 100 H -9.6276 -5.5584 3.7099 0
M  V30 101 H -6.3974 -3.6937 3.7118 0
M  V30 102 H -5.1582 -2.9782 5.7489 0
M  V30 103 C 5.7224 -3.1563 8.2807 0
M  V30 104 C 6.4474 -3.5749 7.0972 0
M  V30 105 C 7.6451 -4.2494 7.1845 0
M  V30 106 C 8.3428 -4.6522 6.0491 0
M  V30 107 C 7.8626 -4.3920 4.7823 0
M  V30 108 C 8.5917 -4.8129 3.5952 0
M  V30 109 C 6.6579 -3.7136 4.6965 0
M  V30 110 C 5.9660 -3.3142 5.8220 0
M  V30 111 H 6.1409 -3.3843 9.2411 0
M  V30 112 H 8.0431 -4.4656 8.1613 0
M  V30 113 H 9.2893 -5.1851 6.1208 0
M  V30 114 H 9.5179 -5.3342 3.7099 0
M  V30 115 H 6.2688 -3.5025 3.7119 0
M  V30 116 H 5.0296 -2.7869 5.7490 0
M  V30 117 C 0.1155 6.5268 8.2807 0
M  V30 118 C 0.1155 7.3640 7.0972 0
M  V30 119 C 0.1289 8.7385 7.1845 0
M  V30 120 C 0.1289 9.5441 6.0491 0
M  V30 121 C 0.1154 8.9982 4.7823 0
M  V30 122 C 0.1155 9.8400 3.5952 0
M  V30 123 C 0.1019 7.6157 4.6965 0
M  V30 124 C 0.1019 6.8168 5.8220 0
M  V30 125 H 0.1263 7.0032 9.2411 0
M  V30 126 H 0.1396 9.1913 8.1613 0
M  V30 127 H 0.1396 10.6303 6.1208 0
M  V30 128 H 0.1262 10.9028 3.7099 0
M  V30 129 H 0.0913 7.1731 3.7119 0
M  V30 130 H 0.0914 5.7422 5.7490 0
M  V30 131 C -2.8734 -7.9763 -5.9380 0
M  V30 132 C -1.4237 -7.9765 -5.9381 0
M  V30 133 C -0.7013 -8.9172 -6.6384 0
M  V30 134 C 0.6908 -8.9190 -6.6398 0
M  V30 135 C 1.4099 -7.9748 -5.9368 0
M  V30 136 C 2.8652 -7.9763 -5.9380 0
M  V30 137 C 0.6818 -7.0295 -5.2331 0
M  V30 138 C -0.6984 -7.0275 -5.2315 0
M  V30 139 H -3.3824 -8.7331 -6.5014 0
M  V30 140 H -1.2376 -9.6661 -7.1960 0
M  V30 141 H 1.2593 -9.6636 -7.1942 0
M  V30 142 H 3.3852 -8.7255 -6.4958 0
M  V30 143 H 1.2302 -6.2837 -4.6778 0
M  V30 144 H -1.2592 -6.2899 -4.6824 0
M  V30 145 C -8.3403 1.5068 -5.9380 0
M  V30 146 C -7.6157 2.7624 -5.9381 0
M  V30 147 C -8.0692 3.8583 -6.6384 0
M  V30 148 C -7.3747 5.0648 -6.6397 0
M  V30 149 C -6.1973 5.2154 -5.9368 0
M  V30 150 C -5.4710 6.4766 -5.9380 0
M  V30 151 C -5.7427 4.1123 -5.2331 0
M  V30 152 C -6.4311 2.9159 -5.2316 0
M  V30 153 H -9.2503 1.4444 -6.5013 0
M  V30 154 H -8.9859 3.7684 -7.1959 0
M  V30 155 H -7.7353 5.9295 -7.1940 0
M  V30 156 H -5.8599 7.3015 -6.4957 0
M  V30 157 H -4.8225 4.2143 -4.6779 0
M  V30 158 H -6.0726 2.0614 -4.6825 0
M  V30 159 C 8.3444 1.4998 -5.9380 0
M  V30 160 C 7.6197 2.7553 -5.9381 0
M  V30 161 C 8.0732 3.8512 -6.6384 0
M  V30 162 C 7.3787 5.0578 -6.6398 0
M  V30 163 C 6.2014 5.2084 -5.9368 0
M  V30 164 C 5.4751 6.4695 -5.9380 0
M  V30 165 C 5.7469 4.1052 -5.2331 0
M  V30 166 C 6.4352 2.9089 -5.2315 0
M  V30 167 H 9.2543 1.4373 -6.5014 0
M  V30 168 H 8.9899 3.7613 -7.1960 0
M  V30 169 H 7.7393 5.9224 -7.1942 0
M  V30 170 H 5.8640 7.2944 -6.4958 0
M  V30 171 H 4.8267 4.2073 -4.6778 0
M  V30 172 H 6.0768 2.0544 -4.6824 0
M  V30 END ATOM
M  V30 BEGIN BOND
M  V30 1 1 1 2
M  V30 2 1 2 3
M  V30 3 1 3 4
M  V30 4 1 4 5
M  V30 5 1 5 6
M  V30 6 1 6 7
M  V30 7 1 4 8
M  V30 8 1 8 9
M  V30 9 1 9 10
M  V30 10 1 2 11
M  V30 11 1 2 12
M  V30 12 1 3 13
M  V30 13 1 3 14
M  V30 14 1 5 15
M  V30 15 1 5 16
M  V30 16 1 6 17
M  V30 17 1 6 18
M  V30 18 1 8 19
M  V30 19 1 8 20
M  V30 20 1 9 21
M  V30 21 1 9 22
M  V30 22 1 23 24
M  V30 23 1 24 25
M  V30 24 1 25 26
M  V30 25 1 26 27
M  V30 26 1 27 28
M  V30 27 1 28 29
M  V30 28 1 26 30
M  V30 29 1 30 31
M  V30 30 1 31 32
M  V30 31 1 24 33
M  V30 32 1 24 34
M  V30 33 1 25 35
M  V30 34 1 25 36
M  V30 35 1 27 37
M  V30 36 1 27 38
M  V30 37 1 28 39
M  V30 38 1 28 40
M  V30 39 1 30 41
M  V30 40 1 30 42
M  V30 41 1 31 43
M  V30 42 1 31 44
M  V30 43 1 45 46
M  V30 44 1 46 47
M  V30 45 1 47 48
M  V30 46 1 48 49
M  V30 47 1 49 50
M  V30 48 1 50 51
M  V30 49 1 48 52
M  V30 50 1 52 53
M  V30 51 1 53 54
M  V30 52 1 46 55
M  V30 53 1 46 56
M  V30 54 1 47 57
M  V30 55 1 47 58
M  V30 56 1 49 59
M  V30 57 1 49 60
M  V30 58 1 50 61
M  V30 59 1 50 62
M  V30 60 1 52 63
M  V30 61 1 52 64
M  V30 62 1 53 65
M  V30 63 1 53 66
M  V30 64 1 67 68
M  V30 65 1 68 69
M  V30 66 1 69 70
M  V30 67 1 70 71
M  V30 68 1 71 72
M  V30 69 1 72 73
M  V30 70 1 70 74
M  V30 71 1 74 75
M  V30 72 1 75 76
M  V30 73 1 68 77
M  V30 74 1 68 78
M  V30 75 1 69 79
M  V30 76 1 69 80
M  V30 77 1 71 81
M  V30 78 1 71 82
M  V30 79 1 72 83
M  V30 80 1 72 84
M  V30 81 1 74 85
M  V30 82 1 74 86
M  V30 83 1 75 87
M  V30 84 1 75 88
M  V30 85 1 89 90
M  V30 86 2 90 91
M  V30 87 1 91 92
M  V30 88 2 92 93
M  V30 89 1 93 94
M  V30 90 1 93 95
M  V30 91 2 95 96
M  V30 92 1 96 90
M  V30 93 1 89 97
M  V30 94 1 91 98
M  V30 95 1 92 99
M  V30 96 1 94 100
M  V30 97 1 95 101
M  V30 98 1 96 102
M  V30 99 1 103 104
M  V30 100 2 104 105
M  V30 101 1 105 106
M  V30 102 2 106 107
M  V30 103 1 107 108
M  V30 104 1 107 109
M  V30 105 2 109 110
M  V30 106 1 110 104
M  V30 107 1 103 111
M  V30 108 1 105 112
M  V30 109 1 106 113
M  V30 110 1 108 114
M  V30 111 1 109 115
M  V30 112 1 110 116
M  V30 113 1 117 118
M  V30 114 2 118 119
M  V30 115 1 119 120
M  V30 116 2 120 121
M  V30 117 1 121 122
M  V30 118 1 121 123
M  V30 119 2 123 124
M  V30 120 1 124 118
M  V30 121 1 117 125
M  V30 122 1 119 126
M  V30 123 1 120 127
M  V30 124 1 122 128
M  V30 125 1 123 129
M  V30 126 1 124 130
M  V30 127 1 131 132
M  V30 128 2 132 133
M  V30 129 1 133 134
M  V30 130 2 134 135
M  V30 131 1 135 136
M  V30 132 1 135 137
M  V30 133 2 137 138
M  V30 134 1 138 132
M  V30 135 1 131 139
M  V30 136 1 133 140
M  V30 137 1 134 141
M  V30 138 1 136 142
M  V30 139 1 137 143
M  V30 140 1 138 144
M  V30 141 1 145 146
M  V30 142 2 146 147
M  V30 143 1 147 148
M  V30 144 2 148 149
M  V30 145 1 149 150
M  V30 146 1 149 151
M  V30 147 2 151 152
M  V30 148 1 152 146
M  V30 149 1 145 153
M  V30 150 1 147 154
M  V30 151 1 148 155
M  V30 152 1 150 156
M  V30 153 1 151 157
M  V30 154 1 152 158
M  V30 155 1 159 160
M  V30 156 2 160 161
M  V30 157 1 161 162
M  V30 158 2 162 163
M  V30 159 1 163 164
M  V30 160 1 163 165
M  V30 161 2 165 166
M  V30 162 1 166 160
M  V30 163 1 159 167
M  V30 164 1 161 168
M  V30 165 1 162 169
M  V30 166 1 164 170
M  V30 167 1 165 171
M  V30 168 1 166 172
M  V30 169 2 1 89
M  V30 170 2 23 94
M  V30 171 2 10 103
M  V30 172 2 45 108
M  V30 173 2 7 117
M  V30 174 2 67 122
M  V30 175 2 29 131
M  V30 176 2 54 136
M  V30 177 2 32 145
M  V30 178 2 73 150
M  V30 179 2 51 159
M  V30 180 2 76 164
M  V30 END BOND
M  V30 END CTAB
M  END

$$$$
